
OS:Version,
  {0750db9d-c550-4a36-8c08-030a3ef4a9a7}, !- Handle
  2.8.1;                                  !- Version Identifier

OS:Facility,
  {e4d8c897-ab89-4e1e-80f2-7bea6aaebe0f}; !- Handle

OS:Site,
  {d2beb026-1cfc-4c57-aaf9-cb7992dbbd40}, !- Handle
  Buffalo Niagara Intl Ap_NY_USA,         !- Name
  42.8170218879136,                       !- Latitude {deg}
  -78.8491529713029,                      !- Longitude {deg}
  -5,                                     !- Time Zone {hr}
  215,                                    !- Elevation {m}
  City;                                   !- Terrain

OS:SimulationControl,
  {151c7fca-79e2-4884-a66f-c91c25357acc}, !- Handle
  ,                                       !- Do Zone Sizing Calculation
  ,                                       !- Do System Sizing Calculation
  ,                                       !- Do Plant Sizing Calculation
  Yes,                                    !- Run Simulation for Sizing Periods
  No;                                     !- Run Simulation for Weather File Run Periods

OS:Sizing:Parameters,
  {f6d1f3db-19e5-4995-9ba3-40f5e7281cae}, !- Handle
  1.25,                                   !- Heating Sizing Factor
  1.15;                                   !- Cooling Sizing Factor

OS:Timestep,
  {888dd03b-99bf-41c1-8c41-5a7f1b68f4a6}, !- Handle
  1;                                      !- Number of Timesteps per Hour

OS:ShadowCalculation,
  {9f886394-e860-46b9-a668-6bfb1695509d}, !- Handle
  20,                                     !- Calculation Frequency
  15000;                                  !- Maximum Figures in Shadow Overlap Calculations

OS:HeatBalanceAlgorithm,
  {11920e7e-a764-487a-bd2b-d8970d211ecb}, !- Handle
  ConductionTransferFunction,             !- Algorithm
  200;                                    !- Surface Temperature Upper Limit {C}

OS:RunPeriod,
  {57f1476e-a39c-448e-940c-10a99fd237f0}, !- Handle
  Run Period 1,                           !- Name
  1,                                      !- Begin Month
  1,                                      !- Begin Day of Month
  12,                                     !- End Month
  31,                                     !- End Day of Month
  ,                                       !- Use Weather File Holidays and Special Days
  ,                                       !- Use Weather File Daylight Saving Period
  ,                                       !- Apply Weekend Holiday Rule
  ,                                       !- Use Weather File Rain Indicators
  ,                                       !- Use Weather File Snow Indicators
  ;                                       !- Number of Times Runperiod to be Repeated

OS:LifeCycleCost:Parameters,
  {544c825d-6b5a-41f3-8e69-bb189f913c9f}, !- Handle
  ,                                       !- Analysis Type
  ,                                       !- Discounting Convention
  ,                                       !- Inflation Approach
  ,                                       !- Real Discount Rate
  ,                                       !- Nominal Discount Rate
  ,                                       !- Inflation
  ,                                       !- Base Date Month
  ,                                       !- Base Date Year
  ,                                       !- Service Date Month
  ,                                       !- Service Date Year
  ;                                       !- Length of Study Period in Years

OS:YearDescription,
  {35d2de94-cfab-4ba7-bc6f-49290544a0bd}, !- Handle
  2019,                                   !- Calendar Year
  ,                                       !- Day of Week for Start Day
  ;                                       !- Is Leap Year

OS:WeatherFile,
  {ed07f3d0-e752-43c6-82f1-f96322915034}, !- Handle
  Buffalo Niagara Intl Ap,                !- City
  NY,                                     !- State Province Region
  USA,                                    !- Country
  TMY3,                                   !- Data Source
  725280,                                 !- WMO Number
  42.93,                                  !- Latitude {deg}
  -78.73,                                 !- Longitude {deg}
  -5,                                     !- Time Zone {hr}
  215,                                    !- Elevation {m}
  file:///C:/urbanopt-example-reopt-project/weather/USA_NY_Buffalo-Greater.Buffalo.Intl.AP.725280_TMY3.epw, !- Url
  ;                                       !- Checksum

OS:Site:WaterMainsTemperature,
  {1184bc38-745e-43c6-82ed-9d12c1a6871a}, !- Handle
  Correlation,                            !- Calculation Method
  ,                                       !- Temperature Schedule Name
  8.96666666666667,                       !- Annual Average Outdoor Air Temperature {C}
  26.2;                                   !- Maximum Difference In Monthly Average Outdoor Air Temperatures {deltaC}

OS:SizingPeriod:DesignDay,
  {ed38e8ec-c532-41c9-8e71-937f8351f18b}, !- Handle
  Buffalo Niagara Intl Ap Ann Clg .4% Condns DB=>MWB 1, !- Name
  30.3,                                   !- Maximum Dry-Bulb Temperature {C}
  9.3,                                    !- Daily Dry-Bulb Temperature Range {deltaC}
  21.8,                                   !- Humidity Indicating Conditions at Maximum Dry-Bulb
  98769,                                  !- Barometric Pressure {Pa}
  5.7,                                    !- Wind Speed {m/s}
  240,                                    !- Wind Direction {deg}
  0,                                      !- Sky Clearness
  0,                                      !- Rain Indicator
  0,                                      !- Snow Indicator
  21,                                     !- Day of Month
  7,                                      !- Month
  SummerDesignDay,                        !- Day Type
  0,                                      !- Daylight Saving Time Indicator
  Wetbulb,                                !- Humidity Indicating Type
  ,                                       !- Humidity Indicating Day Schedule Name
  DefaultMultipliers,                     !- Dry-Bulb Temperature Range Modifier Type
  ,                                       !- Dry-Bulb Temperature Range Modifier Schedule Name
  ASHRAETau,                              !- Solar Model Indicator
  ,                                       !- Beam Solar Day Schedule Name
  ,                                       !- Diffuse Solar Day Schedule Name
  0.462,                                  !- ASHRAE Taub {dimensionless}
  2.001;                                  !- ASHRAE Taud {dimensionless}

OS:SizingPeriod:DesignDay,
  {4ad18508-870a-4e16-8da1-534467999cdb}, !- Handle
  Buffalo Niagara Intl Ap Ann Clg .4% Condns WB=>MDB 1, !- Name
  27.8,                                   !- Maximum Dry-Bulb Temperature {C}
  9.3,                                    !- Daily Dry-Bulb Temperature Range {deltaC}
  23.8,                                   !- Humidity Indicating Conditions at Maximum Dry-Bulb
  98769,                                  !- Barometric Pressure {Pa}
  5.7,                                    !- Wind Speed {m/s}
  240,                                    !- Wind Direction {deg}
  0,                                      !- Sky Clearness
  0,                                      !- Rain Indicator
  0,                                      !- Snow Indicator
  21,                                     !- Day of Month
  7,                                      !- Month
  SummerDesignDay,                        !- Day Type
  0,                                      !- Daylight Saving Time Indicator
  Wetbulb,                                !- Humidity Indicating Type
  ,                                       !- Humidity Indicating Day Schedule Name
  DefaultMultipliers,                     !- Dry-Bulb Temperature Range Modifier Type
  ,                                       !- Dry-Bulb Temperature Range Modifier Schedule Name
  ASHRAETau,                              !- Solar Model Indicator
  ,                                       !- Beam Solar Day Schedule Name
  ,                                       !- Diffuse Solar Day Schedule Name
  0.462,                                  !- ASHRAE Taub {dimensionless}
  2.001;                                  !- ASHRAE Taud {dimensionless}

OS:SizingPeriod:DesignDay,
  {809230cf-9afb-4f21-b05f-bdfc0405f92b}, !- Handle
  Buffalo Niagara Intl Ap Ann Htg 99.6% Condns DB 1, !- Name
  -16.3,                                  !- Maximum Dry-Bulb Temperature {C}
  0,                                      !- Daily Dry-Bulb Temperature Range {deltaC}
  -16.3,                                  !- Humidity Indicating Conditions at Maximum Dry-Bulb
  98769,                                  !- Barometric Pressure {Pa}
  5.1,                                    !- Wind Speed {m/s}
  270,                                    !- Wind Direction {deg}
  0,                                      !- Sky Clearness
  0,                                      !- Rain Indicator
  0,                                      !- Snow Indicator
  21,                                     !- Day of Month
  1,                                      !- Month
  WinterDesignDay,                        !- Day Type
  0,                                      !- Daylight Saving Time Indicator
  Wetbulb,                                !- Humidity Indicating Type
  ,                                       !- Humidity Indicating Day Schedule Name
  DefaultMultipliers,                     !- Dry-Bulb Temperature Range Modifier Type
  ,                                       !- Dry-Bulb Temperature Range Modifier Schedule Name
  ASHRAEClearSky;                         !- Solar Model Indicator

OS:ClimateZones,
  {ffd5912a-109b-43e9-ace9-b661186dfd96}, !- Handle
  ,                                       !- Active Institution
  ,                                       !- Active Year
  ASHRAE,                                 !- Climate Zone Institution Name 1
  ANSI/ASHRAE Standard 169,               !- Climate Zone Document Name 1
  2006,                                   !- Climate Zone Document Year 1
  6A;                                     !- Climate Zone Value 1

OS:RunPeriodControl:DaylightSavingTime,
  {4afdaaba-767b-47c7-b425-3753913305fd}, !- Handle
  2nd Sunday in March,                    !- Start Date
  1st Sunday in November;                 !- End Date

OS:People:Definition,
  {1d53e879-c2fb-400e-b621-ccebb15ce064}, !- Handle
  StripMall Strip mall - type 3 People Definition, !- Name
  People/Area,                            !- Number of People Calculation Method
  ,                                       !- Number of People {people}
  0.0861112833336778,                     !- People per Space Floor Area {person/m2}
  ,                                       !- Space Floor Area per Person {m2/person}
  0.3;                                    !- Fraction Radiant

OS:Schedule:Ruleset,
  {4f96b530-dd13-4138-8946-d45866391625}, !- Handle
  Clothing Schedule,                      !- Name
  {aa4d76cc-42ef-4570-8c6b-f91cbf868f25}, !- Schedule Type Limits Name
  {8a8dc2d8-dbee-4d0a-b0b6-13a04e012457}; !- Default Day Schedule Name

OS:Schedule:Day,
  {8a8dc2d8-dbee-4d0a-b0b6-13a04e012457}, !- Handle
  Clothing Schedule Default Winter Clothes, !- Name
  {aa4d76cc-42ef-4570-8c6b-f91cbf868f25}, !- Schedule Type Limits Name
  ,                                       !- Interpolate to Timestep
  24,                                     !- Hour 1
  0,                                      !- Minute 1
  1;                                      !- Value Until Time 1

OS:Schedule:Rule,
  {f64f2a2c-eb83-4a7c-ae66-bdf327ee9690}, !- Handle
  Schedule Rule 1,                        !- Name
  {4f96b530-dd13-4138-8946-d45866391625}, !- Schedule Ruleset Name
  0,                                      !- Rule Order
  {ccf82d0f-0145-44e8-b1de-dfa9ad4089d1}, !- Day Schedule Name
  ,                                       !- Apply Sunday
  ,                                       !- Apply Monday
  ,                                       !- Apply Tuesday
  ,                                       !- Apply Wednesday
  ,                                       !- Apply Thursday
  ,                                       !- Apply Friday
  ,                                       !- Apply Saturday
  ,                                       !- Apply Holiday
  DateRange,                              !- Date Specification Type
  5,                                      !- Start Month
  1,                                      !- Start Day
  9,                                      !- End Month
  30;                                     !- End Day

OS:Schedule:Day,
  {ccf82d0f-0145-44e8-b1de-dfa9ad4089d1}, !- Handle
  Clothing Schedule Summer Clothes,       !- Name
  {aa4d76cc-42ef-4570-8c6b-f91cbf868f25}, !- Schedule Type Limits Name
  ,                                       !- Interpolate to Timestep
  24,                                     !- Hour 1
  0,                                      !- Minute 1
  0.5;                                    !- Value Until Time 1

OS:ScheduleTypeLimits,
  {aa4d76cc-42ef-4570-8c6b-f91cbf868f25}, !- Handle
  ClothingInsulation,                     !- Name
  0,                                      !- Lower Limit Value
  ,                                       !- Upper Limit Value
  Continuous,                             !- Numeric Type
  ClothingInsulation;                     !- Unit Type

OS:Schedule:Ruleset,
  {f9505605-da25-40e2-bb8c-89442f69a2b6}, !- Handle
  Air Velocity Schedule,                  !- Name
  {c3c0b995-7a9c-4e2e-a428-0701d4d09f3d}, !- Schedule Type Limits Name
  {41c3b66a-e542-46dc-a4e0-64416518a68e}; !- Default Day Schedule Name

OS:Schedule:Day,
  {41c3b66a-e542-46dc-a4e0-64416518a68e}, !- Handle
  Air Velocity Schedule Default,          !- Name
  {c3c0b995-7a9c-4e2e-a428-0701d4d09f3d}, !- Schedule Type Limits Name
  ,                                       !- Interpolate to Timestep
  24,                                     !- Hour 1
  0,                                      !- Minute 1
  0.2;                                    !- Value Until Time 1

OS:ScheduleTypeLimits,
  {c3c0b995-7a9c-4e2e-a428-0701d4d09f3d}, !- Handle
  Velocity,                               !- Name
  0,                                      !- Lower Limit Value
  ,                                       !- Upper Limit Value
  Continuous,                             !- Numeric Type
  Velocity;                               !- Unit Type

OS:Schedule:Ruleset,
  {7026a45b-6cd5-42c6-a0c7-482042253091}, !- Handle
  Work Efficiency Schedule,               !- Name
  {e0d562a9-1f24-4a47-bba4-227e9247fd00}, !- Schedule Type Limits Name
  {80258e6e-32c9-4af7-bd73-aba58b7593b1}; !- Default Day Schedule Name

OS:Schedule:Day,
  {80258e6e-32c9-4af7-bd73-aba58b7593b1}, !- Handle
  Work Efficiency Schedule Default,       !- Name
  {e0d562a9-1f24-4a47-bba4-227e9247fd00}, !- Schedule Type Limits Name
  ,                                       !- Interpolate to Timestep
  24,                                     !- Hour 1
  0,                                      !- Minute 1
  0;                                      !- Value Until Time 1

OS:ScheduleTypeLimits,
  {e0d562a9-1f24-4a47-bba4-227e9247fd00}, !- Handle
  Fractional,                             !- Name
  0,                                      !- Lower Limit Value
  1,                                      !- Upper Limit Value
  Continuous;                             !- Numeric Type

OS:Lights:Definition,
  {b08772f3-131b-496b-9f1e-e51741617d53}, !- Handle
  StripMall Strip mall - type 3 Lights Definition, !- Name
  Watts/Area,                             !- Design Level Calculation Method
  ,                                       !- Lighting Level {W}
  13.4548880208872,                       !- Watts per Space Floor Area {W/m2}
  ,                                       !- Watts per Person {W/person}
  0.7,                                    !- Fraction Radiant
  0.2;                                    !- Fraction Visible

OS:AdditionalProperties,
  {387df365-7ee3-45e3-8d05-c6e513318ab8}, !- Handle
  {b08772f3-131b-496b-9f1e-e51741617d53}, !- Object Name
  lpd_fraction_linear_fluorescent,        !- Feature Name 1
  Double,                                 !- Feature Data Type 1
  1;                                      !- Feature Value 1

OS:Lights:Definition,
  {69a364e7-6e77-405b-9693-07328ec2ff53}, !- Handle
  StripMall Strip mall - type 3 Additional Lights Definition, !- Name
  Watts/Area,                             !- Design Level Calculation Method
  ,                                       !- Lighting Level {W}
  0.478574221037331,                      !- Watts per Space Floor Area {W/m2}
  ,                                       !- Watts per Person {W/person}
  0.7,                                    !- Fraction Radiant
  0.2,                                    !- Fraction Visible
  0;                                      !- Return Air Fraction

OS:ElectricEquipment:Definition,
  {465c161a-057a-47a7-83ea-53a78e50c0f7}, !- Handle
  StripMall Strip mall - type 3 Elec Equip Definition, !- Name
  Watts/Area,                             !- Design Level Calculation Method
  ,                                       !- Design Level {W}
  4.30556416668389,                       !- Watts per Space Floor Area {W/m2}
  ,                                       !- Watts per Person {W/person}
  ,                                       !- Fraction Latent
  0.5;                                    !- Fraction Radiant

OS:DesignSpecification:OutdoorAir,
  {9777712c-bba7-4afd-8894-3c834012c477}, !- Handle
  StripMall Strip mall - type 3 Ventilation, !- Name
  Sum,                                    !- Outdoor Air Method
  ,                                       !- Outdoor Air Flow per Person {m3/s-person}
  0.0011811,                              !- Outdoor Air Flow per Floor Area {m3/s-m2}
  ,                                       !- Outdoor Air Flow Rate {m3/s}
  ,                                       !- Outdoor Air Flow Air Changes per Hour {1/hr}
  ;                                       !- Outdoor Air Flow Rate Fraction Schedule Name

OS:DefaultScheduleSet,
  {4a005390-bf72-4ecb-81bd-2cc320ec44f5}, !- Handle
  StripMall Strip mall - type 3 Schedule Set, !- Name
  ,                                       !- Hours of Operation Schedule Name
  {4994769d-fc60-4a96-b83c-0e649834fea8}, !- Number of People Schedule Name
  {31c9fc60-c5ac-4b47-8ea0-0b35da4b7cf5}, !- People Activity Level Schedule Name
  {6beb58bd-d679-424e-b571-a59192377e58}, !- Lighting Schedule Name
  {dfbf645f-b42a-43f5-b736-800bb10ca63b}, !- Electric Equipment Schedule Name
  ,                                       !- Gas Equipment Schedule Name
  ,                                       !- Hot Water Equipment Schedule Name
  {ae3db9f5-ccf3-4a4a-a6c2-66037faa27f8}, !- Infiltration Schedule Name
  ,                                       !- Steam Equipment Schedule Name
  ;                                       !- Other Equipment Schedule Name

OS:Schedule:Ruleset,
  {4994769d-fc60-4a96-b83c-0e649834fea8}, !- Handle
  RetailStripmall Type3_OCC_SCH,          !- Name
  {e0d562a9-1f24-4a47-bba4-227e9247fd00}, !- Schedule Type Limits Name
  {853e6e97-546e-4408-ae5f-da940285abb6}, !- Default Day Schedule Name
  {84c22426-2a50-43da-b3e9-568d6a56d5d9}, !- Summer Design Day Schedule Name
  {853303ca-139d-41f9-ba48-7574e8c660fe}; !- Winter Design Day Schedule Name

OS:Schedule:Day,
  {853e6e97-546e-4408-ae5f-da940285abb6}, !- Handle
  RetailStripmall Type3_OCC_SCH Default,  !- Name
  {e0d562a9-1f24-4a47-bba4-227e9247fd00}, !- Schedule Type Limits Name
  ,                                       !- Interpolate to Timestep
  10,                                     !- Hour 1
  0,                                      !- Minute 1
  0,                                      !- Value Until Time 1
  12,                                     !- Hour 2
  0,                                      !- Minute 2
  0.11,                                   !- Value Until Time 2
  13,                                     !- Hour 3
  0,                                      !- Minute 3
  0.43,                                   !- Value Until Time 3
  14,                                     !- Hour 4
  0,                                      !- Minute 4
  0.46,                                   !- Value Until Time 4
  15,                                     !- Hour 5
  0,                                      !- Minute 5
  0.5,                                    !- Value Until Time 5
  16,                                     !- Hour 6
  0,                                      !- Minute 6
  0.69,                                   !- Value Until Time 6
  17,                                     !- Hour 7
  0,                                      !- Minute 7
  0.34,                                   !- Value Until Time 7
  18,                                     !- Hour 8
  0,                                      !- Minute 8
  0.11,                                   !- Value Until Time 8
  24,                                     !- Hour 9
  0,                                      !- Minute 9
  0;                                      !- Value Until Time 9

OS:Schedule:Rule,
  {5c666b2a-3f20-4b09-b157-bbac0cba42d4}, !- Handle
  Schedule Rule 2,                        !- Name
  {4994769d-fc60-4a96-b83c-0e649834fea8}, !- Schedule Ruleset Name
  1,                                      !- Rule Order
  {29a58cee-72df-455e-a1d2-788acb52fc2f}, !- Day Schedule Name
  ,                                       !- Apply Sunday
  ,                                       !- Apply Monday
  ,                                       !- Apply Tuesday
  ,                                       !- Apply Wednesday
  ,                                       !- Apply Thursday
  ,                                       !- Apply Friday
  Yes,                                    !- Apply Saturday
  ,                                       !- Apply Holiday
  DateRange,                              !- Date Specification Type
  1,                                      !- Start Month
  1,                                      !- Start Day
  12,                                     !- End Month
  31;                                     !- End Day

OS:Schedule:Day,
  {29a58cee-72df-455e-a1d2-788acb52fc2f}, !- Handle
  RetailStripmall Type3_OCC_SCH Sat Day,  !- Name
  {e0d562a9-1f24-4a47-bba4-227e9247fd00}, !- Schedule Type Limits Name
  ,                                       !- Interpolate to Timestep
  9,                                      !- Hour 1
  0,                                      !- Minute 1
  0,                                      !- Value Until Time 1
  11,                                     !- Hour 2
  0,                                      !- Minute 2
  0.11,                                   !- Value Until Time 2
  12,                                     !- Hour 3
  0,                                      !- Minute 3
  0.58,                                   !- Value Until Time 3
  13,                                     !- Hour 4
  0,                                      !- Minute 4
  0.71,                                   !- Value Until Time 4
  14,                                     !- Hour 5
  0,                                      !- Minute 5
  0.74,                                   !- Value Until Time 5
  15,                                     !- Hour 6
  0,                                      !- Minute 6
  0.77,                                   !- Value Until Time 6
  16,                                     !- Hour 7
  0,                                      !- Minute 7
  0.8,                                    !- Value Until Time 7
  17,                                     !- Hour 8
  0,                                      !- Minute 8
  0.74,                                   !- Value Until Time 8
  18,                                     !- Hour 9
  0,                                      !- Minute 9
  0.54,                                   !- Value Until Time 9
  19,                                     !- Hour 10
  0,                                      !- Minute 10
  0.11,                                   !- Value Until Time 10
  24,                                     !- Hour 11
  0,                                      !- Minute 11
  0;                                      !- Value Until Time 11

OS:Schedule:Day,
  {84c22426-2a50-43da-b3e9-568d6a56d5d9}, !- Handle
  RetailStripmall Type3_OCC_SCH Summer Design Day, !- Name
  {e0d562a9-1f24-4a47-bba4-227e9247fd00}, !- Schedule Type Limits Name
  ,                                       !- Interpolate to Timestep
  24,                                     !- Hour 1
  0,                                      !- Minute 1
  1;                                      !- Value Until Time 1

OS:Schedule:Rule,
  {cac8a2ed-a420-4874-8d5c-67c4a6249c2b}, !- Handle
  Schedule Rule 3,                        !- Name
  {4994769d-fc60-4a96-b83c-0e649834fea8}, !- Schedule Ruleset Name
  0,                                      !- Rule Order
  {b0498779-e392-4ec5-9d14-43f91a04581f}, !- Day Schedule Name
  ,                                       !- Apply Sunday
  Yes,                                    !- Apply Monday
  Yes,                                    !- Apply Tuesday
  Yes,                                    !- Apply Wednesday
  Yes,                                    !- Apply Thursday
  Yes,                                    !- Apply Friday
  ,                                       !- Apply Saturday
  ,                                       !- Apply Holiday
  DateRange,                              !- Date Specification Type
  1,                                      !- Start Month
  1,                                      !- Start Day
  12,                                     !- End Month
  31;                                     !- End Day

OS:Schedule:Day,
  {b0498779-e392-4ec5-9d14-43f91a04581f}, !- Handle
  RetailStripmall Type3_OCC_SCH Wkdy Day, !- Name
  {e0d562a9-1f24-4a47-bba4-227e9247fd00}, !- Schedule Type Limits Name
  ,                                       !- Interpolate to Timestep
  9,                                      !- Hour 1
  0,                                      !- Minute 1
  0,                                      !- Value Until Time 1
  11,                                     !- Hour 2
  0,                                      !- Minute 2
  0.11,                                   !- Value Until Time 2
  12,                                     !- Hour 3
  0,                                      !- Minute 3
  0.43,                                   !- Value Until Time 3
  13,                                     !- Hour 4
  0,                                      !- Minute 4
  0.46,                                   !- Value Until Time 4
  14,                                     !- Hour 5
  0,                                      !- Minute 5
  0.71,                                   !- Value Until Time 5
  15,                                     !- Hour 6
  0,                                      !- Minute 6
  0.5,                                    !- Value Until Time 6
  16,                                     !- Hour 7
  0,                                      !- Minute 7
  0.69,                                   !- Value Until Time 7
  17,                                     !- Hour 8
  0,                                      !- Minute 8
  0.54,                                   !- Value Until Time 8
  18,                                     !- Hour 9
  0,                                      !- Minute 9
  0.71,                                   !- Value Until Time 9
  19,                                     !- Hour 10
  0,                                      !- Minute 10
  0.34,                                   !- Value Until Time 10
  20,                                     !- Hour 11
  0,                                      !- Minute 11
  0.26,                                   !- Value Until Time 11
  21,                                     !- Hour 12
  0,                                      !- Minute 12
  0.11,                                   !- Value Until Time 12
  24,                                     !- Hour 13
  0,                                      !- Minute 13
  0;                                      !- Value Until Time 13

OS:Schedule:Day,
  {853303ca-139d-41f9-ba48-7574e8c660fe}, !- Handle
  RetailStripmall Type3_OCC_SCH Winter Design Day, !- Name
  {e0d562a9-1f24-4a47-bba4-227e9247fd00}, !- Schedule Type Limits Name
  ,                                       !- Interpolate to Timestep
  24,                                     !- Hour 1
  0,                                      !- Minute 1
  0;                                      !- Value Until Time 1

OS:Schedule:Ruleset,
  {31c9fc60-c5ac-4b47-8ea0-0b35da4b7cf5}, !- Handle
  HotelSmall Activity_Sch,                !- Name
  {b510ed3d-4702-4e94-9cac-62873d8c2754}, !- Schedule Type Limits Name
  {1d7d5964-eaf1-4254-8403-eb7debd977f7}, !- Default Day Schedule Name
  {0c642d35-62ad-4dbc-a53d-572ad99e6b5c}, !- Summer Design Day Schedule Name
  {5d8173ca-98db-4042-9bcf-dd4ddbc5f5d0}; !- Winter Design Day Schedule Name

OS:Schedule:Day,
  {1d7d5964-eaf1-4254-8403-eb7debd977f7}, !- Handle
  HotelSmall Activity_Sch Default,        !- Name
  {b510ed3d-4702-4e94-9cac-62873d8c2754}, !- Schedule Type Limits Name
  ,                                       !- Interpolate to Timestep
  24,                                     !- Hour 1
  0,                                      !- Minute 1
  132;                                    !- Value Until Time 1

OS:Schedule:Day,
  {5d8173ca-98db-4042-9bcf-dd4ddbc5f5d0}, !- Handle