
Version,
  9.1;                                    !- Version Identifier

Timestep,
  1;                                      !- Number of Timesteps per Hour

LifeCycleCost:Parameters,
  Life Cycle Cost Parameters,             !- Name
  EndOfYear,                              !- Discounting Convention
  ConstantDollar,                         !- Inflation Approach
  0.03,                                   !- Real Discount Rate
  ,                                       !- Nominal Discount Rate
  ,                                       !- Inflation
  ,                                       !- Base Date Month
  2011,                                   !- Base Date Year
  ,                                       !- Service Date Month
  2011,                                   !- Service Date Year
  25,                                     !- Length of Study Period in Years
  ,                                       !- Tax rate
  None;                                   !- Depreciation Method

LifeCycleCost:UsePriceEscalation,
  U.S. Avg  Commercial-Electricity,       !- LCC Price Escalation Name
  Electricity,                            !- Resource
  2011,                                   !- Escalation Start Year
  January,                                !- Escalation Start Month
  0.9838,                                 !- Year Escalation 1
  0.9730,                                 !- Year Escalation 2
  0.9632,                                 !- Year Escalation 3
  0.9611,                                 !- Year Escalation 4
  0.9571,                                 !- Year Escalation 5
  0.9553,                                 !- Year Escalation 6
  0.9539,                                 !- Year Escalation 7
  0.9521,                                 !- Year Escalation 8
  0.9546,                                 !- Year Escalation 9
  0.9550,                                 !- Year Escalation 10
  0.9553,                                 !- Year Escalation 11
  0.9564,                                 !- Year Escalation 12
  0.9575,                                 !- Year Escalation 13
  0.9596,                                 !- Year Escalation 14
  0.9618,                                 !- Year Escalation 15
  0.9614,                                 !- Year Escalation 16
  0.9618,                                 !- Year Escalation 17
  0.9618,                                 !- Year Escalation 18
  0.9593,                                 !- Year Escalation 19
  0.9589,                                 !- Year Escalation 20
  0.9607,                                 !- Year Escalation 21
  0.9625,                                 !- Year Escalation 22
  0.9650,                                 !- Year Escalation 23
  0.9708,                                 !- Year Escalation 24
  0.9751,                                 !- Year Escalation 25
  0.9762,                                 !- Year Escalation 26
  0.9766,                                 !- Year Escalation 27
  0.9766,                                 !- Year Escalation 28
  0.9769,                                 !- Year Escalation 29
  0.9773;                                 !- Year Escalation 30

LifeCycleCost:UsePriceEscalation,
  U.S. Avg  Commercial-Distillate Oil,    !- LCC Price Escalation Name
  FuelOil#1,                              !- Resource
  2011,                                   !- Escalation Start Year
  January,                                !- Escalation Start Month
  0.9714,                                 !- Year Escalation 1
  0.9730,                                 !- Year Escalation 2
  0.9942,                                 !- Year Escalation 3
  1.0164,                                 !- Year Escalation 4
  1.0541,                                 !- Year Escalation 5
  1.0928,                                 !- Year Escalation 6
  1.1267,                                 !- Year Escalation 7
  1.1580,                                 !- Year Escalation 8
  1.1792,                                 !- Year Escalation 9
  1.1967,                                 !- Year Escalation 10
  1.2200,                                 !- Year Escalation 11
  1.2333,                                 !- Year Escalation 12
  1.2566,                                 !- Year Escalation 13
  1.2709,                                 !- Year Escalation 14
  1.2826,                                 !- Year Escalation 15
  1.2985,                                 !- Year Escalation 16
  1.3102,                                 !- Year Escalation 17
  1.3250,                                 !- Year Escalation 18
  1.3261,                                 !- Year Escalation 19
  1.3282,                                 !- Year Escalation 20
  1.3324,                                 !- Year Escalation 21
  1.3356,                                 !- Year Escalation 22
  1.3431,                                 !- Year Escalation 23
  1.3510,                                 !- Year Escalation 24
  1.3568,                                 !- Year Escalation 25
  1.3606,                                 !- Year Escalation 26
  1.3637,                                 !- Year Escalation 27
  1.3674,                                 !- Year Escalation 28
  1.3706,                                 !- Year Escalation 29
  1.3743;                                 !- Year Escalation 30

LifeCycleCost:UsePriceEscalation,
  U.S. Avg  Commercial-Residual Oil,      !- LCC Price Escalation Name
  FuelOil#2,                              !- Resource
  2011,                                   !- Escalation Start Year
  January,                                !- Escalation Start Month
  0.8469,                                 !- Year Escalation 1
  0.8257,                                 !- Year Escalation 2
  0.8681,                                 !- Year Escalation 3
  0.8988,                                 !- Year Escalation 4
  0.9289,                                 !- Year Escalation 5
  0.9604,                                 !- Year Escalation 6
  0.9897,                                 !- Year Escalation 7
  1.0075,                                 !- Year Escalation 8
  1.0314,                                 !- Year Escalation 9
  1.0554,                                 !- Year Escalation 10
  1.0861,                                 !- Year Escalation 11
  1.1278,                                 !- Year Escalation 12
  1.1497,                                 !- Year Escalation 13
  1.1620,                                 !- Year Escalation 14
  1.1743,                                 !- Year Escalation 15
  1.1852,                                 !- Year Escalation 16
  1.1948,                                 !- Year Escalation 17
  1.2037,                                 !- Year Escalation 18
  1.2071,                                 !- Year Escalation 19
  1.2119,                                 !- Year Escalation 20
  1.2139,                                 !- Year Escalation 21
  1.2194,                                 !- Year Escalation 22
  1.2276,                                 !- Year Escalation 23
  1.2365,                                 !- Year Escalation 24
  1.2420,                                 !- Year Escalation 25
  1.2461,                                 !- Year Escalation 26
  1.2509,                                 !- Year Escalation 27
  1.2550,                                 !- Year Escalation 28
  1.2591,                                 !- Year Escalation 29
  1.2638;                                 !- Year Escalation 30

LifeCycleCost:UsePriceEscalation,
  U.S. Avg  Commercial-Natural gas,       !- LCC Price Escalation Name
  NaturalGas,                             !- Resource
  2011,                                   !- Escalation Start Year
  January,                                !- Escalation Start Month
  0.9823,                                 !- Year Escalation 1
  0.9557,                                 !- Year Escalation 2
  0.9279,                                 !- Year Escalation 3
  0.9257,                                 !- Year Escalation 4
  0.9346,                                 !- Year Escalation 5
  0.9412,                                 !- Year Escalation 6
  0.9512,                                 !- Year Escalation 7
  0.9645,                                 !- Year Escalation 8
  0.9856,                                 !- Year Escalation 9
  1.0067,                                 !- Year Escalation 10
  1.0222,                                 !- Year Escalation 11
  1.0410,                                 !- Year Escalation 12
  1.0610,                                 !- Year Escalation 13
  1.0787,                                 !- Year Escalation 14
  1.0942,                                 !- Year Escalation 15
  1.1098,                                 !- Year Escalation 16
  1.1220,                                 !- Year Escalation 17
  1.1308,                                 !- Year Escalation 18
  1.1386,                                 !- Year Escalation 19
  1.1486,                                 !- Year Escalation 20
  1.1619,                                 !- Year Escalation 21
  1.1763,                                 !- Year Escalation 22
  1.1918,                                 !- Year Escalation 23
  1.2118,                                 !- Year Escalation 24
  1.2284,                                 !- Year Escalation 25
  1.2439,                                 !- Year Escalation 26
  1.2605,                                 !- Year Escalation 27
  1.2772,                                 !- Year Escalation 28
  1.2938,                                 !- Year Escalation 29
  1.3115;                                 !- Year Escalation 30

LifeCycleCost:UsePriceEscalation,
  U.S. Avg  Commercial-Coal,              !- LCC Price Escalation Name
  Coal,                                   !- Resource
  2011,                                   !- Escalation Start Year
  January,                                !- Escalation Start Month
  0.9970,                                 !- Year Escalation 1
  1.0089,                                 !- Year Escalation 2
  1.0089,                                 !- Year Escalation 3
  0.9941,                                 !- Year Escalation 4
  0.9941,                                 !- Year Escalation 5
  1.0000,                                 !- Year Escalation 6
  1.0030,                                 !- Year Escalation 7
  1.0059,                                 !- Year Escalation 8
  1.0089,                                 !- Year Escalation 9
  1.0119,                                 !- Year Escalation 10
  1.0148,                                 !- Year Escalation 11
  1.0178,                                 !- Year Escalation 12
  1.0208,                                 !- Year Escalation 13
  1.0267,                                 !- Year Escalation 14
  1.0297,                                 !- Year Escalation 15
  1.0356,                                 !- Year Escalation 16
  1.0415,                                 !- Year Escalation 17
  1.0534,                                 !- Year Escalation 18
  1.0564,                                 !- Year Escalation 19
  1.0593,                                 !- Year Escalation 20
  1.0653,                                 !- Year Escalation 21
  1.0712,                                 !- Year Escalation 22
  1.0742,                                 !- Year Escalation 23
  1.0801,                                 !- Year Escalation 24
  1.0831,                                 !- Year Escalation 25
  1.0831,                                 !- Year Escalation 26
  1.0861,                                 !- Year Escalation 27
  1.0890,                                 !- Year Escalation 28
  1.0920,                                 !- Year Escalation 29
  1.0950;                                 !- Year Escalation 30

Building,
  Hotel 1,                                !- Name
  ,                                       !- North Axis {deg}
  City,                                   !- Terrain
  ,                                       !- Loads Convergence Tolerance Value
  ,                                       !- Temperature Convergence Tolerance Value {deltaC}
  ,                                       !- Solar Distribution
  ,                                       !- Maximum Number of Warmup Days
  ;                                       !- Minimum Number of Warmup Days

Shading:Building:Detailed,
  Shading Surface 1,                      !- Name
  ,                                       !- Transmittance Schedule Name
  ,                                       !- Number of Vertices
  66.4569353822702, 16.0511887939948, 0,  !- X,Y,Z Vertex 1 {m}
  18.6480189839926, 2.52226893593388e-005, 0, !- X,Y,Z Vertex 2 {m}
  1.51572976392345e-010, 55.144026913054, 0, !- X,Y,Z Vertex 3 {m}
  47.8085773813127, 71.1949336904671, 0;  !- X,Y,Z Vertex 4 {m}

Shading:Building:Detailed,
  Shading Surface 2,                      !- Name
  ,                                       !- Transmittance Schedule Name
  ,                                       !- Number of Vertices
  47.8085773813127, 71.1949336904671, 24, !- X,Y,Z Vertex 1 {m}
  47.8085773813127, 71.1949336904671, 0,  !- X,Y,Z Vertex 2 {m}
  1.51572976392345e-010, 55.144026913054, 0, !- X,Y,Z Vertex 3 {m}
  1.51572976392345e-010, 55.144026913054, 24; !- X,Y,Z Vertex 4 {m}

Shading:Building:Detailed,
  Shading Surface 3,                      !- Name
  ,                                       !- Transmittance Schedule Name
  ,                                       !- Number of Vertices
  66.4569353822702, 16.0511887939948, 24, !- X,Y,Z Vertex 1 {m}
  66.4569353822702, 16.0511887939948, 0,  !- X,Y,Z Vertex 2 {m}
  47.8085773813127, 71.1949336904671, 0,  !- X,Y,Z Vertex 3 {m}
  47.8085773813127, 71.1949336904671, 24; !- X,Y,Z Vertex 4 {m}

Shading:Building:Detailed,
  Shading Surface 4,                      !- Name
  ,                                       !- Transmittance Schedule Name
  ,                                       !- Number of Vertices
  47.8085773813127, 71.1949336904671, 24, !- X,Y,Z Vertex 1 {m}
  1.51572976392345e-010, 55.144026913054, 24, !- X,Y,Z Vertex 2 {m}
  18.6480189839926, 2.52226893593388e-005, 24, !- X,Y,Z Vertex 3 {m}
  66.4569353822702, 16.0511887939948, 24; !- X,Y,Z Vertex 4 {m}

Shading:Building:Detailed,
  Shading Surface 5,                      !- Name
  ,                                       !- Transmittance Schedule Name
  ,                                       !- Number of Vertices
  1.51572976392345e-010, 55.144026913054, 24, !- X,Y,Z Vertex 1 {m}
  1.51572976392345e-010, 55.144026913054, 0, !- X,Y,Z Vertex 2 {m}
  18.6480189839926, 2.52226893593388e-005, 0, !- X,Y,Z Vertex 3 {m}
  18.6480189839926, 2.52226893593388e-005, 24; !- X,Y,Z Vertex 4 {m}

Shading:Building:Detailed,
  Shading Surface 6,                      !- Name
  ,                                       !- Transmittance Schedule Name
  ,                                       !- Number of Vertices
  18.6480189839926, 2.52226893593388e-005, 24, !- X,Y,Z Vertex 1 {m}
  18.6480189839926, 2.52226893593388e-005, 0, !- X,Y,Z Vertex 2 {m}
  66.4569353822702, 16.0511887939948, 0,  !- X,Y,Z Vertex 3 {m}
  66.4569353822702, 16.0511887939948, 24; !- X,Y,Z Vertex 4 {m}

Zone,
  Building Story 1 ThermalZone,           !- Name
  ,                                       !- Direction of Relative North {deg}
  ,                                       !- X Origin {m}
  ,                                       !- Y Origin {m}
  ,                                       !- Z Origin {m}
  ,                                       !- Type
  ,                                       !- Multiplier
  ,                                       !- Ceiling Height {m}
  ,                                       !- Volume {m3}
  ,                                       !- Floor Area {m2}
  ,                                       !- Zone Inside Convection Algorithm
  ;                                       !- Zone Outside Convection Algorithm

BuildingSurface:Detailed,
  Surface 1,                              !- Name
  Floor,                                  !- Surface Type
  Typical Insulated Carpeted 8in Slab Floor, !- Construction Name
  Building Story 1 ThermalZone,           !- Zone Name
  Ground,                                 !- Outside Boundary Condition
  ,                                       !- Outside Boundary Condition Object
  NoSun,                                  !- Sun Exposure
  NoWind,                                 !- Wind Exposure
  ,                                       !- View Factor to Ground
  ,                                       !- Number of Vertices
  66.4569353822702, 16.0511887939948, 0,  !- X,Y,Z Vertex 1 {m}
  18.6480189839926, 2.52226893593388e-005, 0, !- X,Y,Z Vertex 2 {m}
  1.51572976392345e-010, 55.144026913054, 0, !- X,Y,Z Vertex 3 {m}
  47.8085773813127, 71.1949336904671, 0;  !- X,Y,Z Vertex 4 {m}

BuildingSurface:Detailed,
  Surface 2,                              !- Name
  Wall,                                   !- Surface Type
  Typical Insulated Exterior Mass Wall R-12.5, !- Construction Name
  Building Story 1 ThermalZone,           !- Zone Name
  Outdoors,                               !- Outside Boundary Condition
  ,                                       !- Outside Boundary Condition Object
  SunExposed,                             !- Sun Exposure
  WindExposed,                            !- Wind Exposure
  ,                                       !- View Factor to Ground
  ,                                       !- Number of Vertices
  18.6480189839926, 2.52226893593388e-005, 3, !- X,Y,Z Vertex 1 {m}
  18.6480189839926, 2.52226893593388e-005, 0, !- X,Y,Z Vertex 2 {m}
  66.4569353822702, 16.0511887939948, 0,  !- X,Y,Z Vertex 3 {m}
  66.4569353822702, 16.0511887939948, 3;  !- X,Y,Z Vertex 4 {m}

FenestrationSurface:Detailed,
  Sub Surface 2,                          !- Name
  Window,                                 !- Surface Type
  U 0.48 SHGC 0.40 Dbl Ref-D Clr 6mm/13mm, !- Construction Name
  Surface 2,                              !- Building Surface Name
  ,                                       !- Outside Boundary Condition Object
  ,                                       !- View Factor to Ground
  ,                                       !- Frame and Divider Name
  ,                                       !- Multiplier
  ,                                       !- Number of Vertices
  18.6720981288994, 0.00810945305208691, 1.66290749105644, !- X,Y,Z Vertex 1 {m}
  18.6720981288994, 0.00810945305208691, 0.762, !- X,Y,Z Vertex 2 {m}
  66.4328562373634, 16.0431045636321, 0.762, !- X,Y,Z Vertex 3 {m}
  66.4328562373634, 16.0431045636321, 1.66290749105644; !- X,Y,Z Vertex 4 {m}

BuildingSurface:Detailed,
  Surface 3,                              !- Name
  Wall,                                   !- Surface Type
  Typical Insulated Exterior Mass Wall R-12.5, !- Construction Name
  Building Story 1 ThermalZone,           !- Zone Name
  Outdoors,                               !- Outside Boundary Condition
  ,                                       !- Outside Boundary Condition Object
  SunExposed,                             !- Sun Exposure
  WindExposed,                            !- Wind Exposure
  ,                                       !- View Factor to Ground
  ,                                       !- Number of Vertices
  1.51572976392345e-010, 55.144026913054, 3, !- X,Y,Z Vertex 1 {m}
  1.51572976392345e-010, 55.144026913054, 0, !- X,Y,Z Vertex 2 {m}
  18.6480189839926, 2.52226893593388e-005, 0, !- X,Y,Z Vertex 3 {m}
  18.6480189839926, 2.52226893593388e-005, 3; !- X,Y,Z Vertex 4 {m}

FenestrationSurface:Detailed,
  Sub Surface 1,                          !- Name
  Window,                                 !- Surface Type
  U 0.48 SHGC 0.40 Dbl Ref-D Clr 6mm/13mm, !- Construction Name
  Surface 3,                              !- Building Surface Name
  ,                                       !- Outside Boundary Condition Object
  ,                                       !- View Factor to Ground
  ,                                       !- Frame and Divider Name
  ,                                       !- Multiplier
  ,                                       !- Number of Vertices
  0.00813683787985223, 55.119965494314, 1.66278609425303, !- X,Y,Z Vertex 1 {m}
  0.00813683787985223, 55.119965494314, 0.762, !- X,Y,Z Vertex 2 {m}
  18.6398821462643, 0.0240866414294061, 0.762, !- X,Y,Z Vertex 3 {m}
  18.6398821462643, 0.0240866414294061, 1.66278609425303; !- X,Y,Z Vertex 4 {m}

BuildingSurface:Detailed,
  Surface 4,                              !- Name
  Wall,                                   !- Surface Type
  Typical Insulated Exterior Mass Wall R-12.5, !- Construction Name
  Building Story 1 ThermalZone,           !- Zone Name
  Outdoors,                               !- Outside Boundary Condition
  ,                                       !- Outside Boundary Condition Object
  SunExposed,                             !- Sun Exposure
  WindExposed,                            !- Wind Exposure
  ,                                       !- View Factor to Ground
  ,                                       !- Number of Vertices
  47.8085773813127, 71.1949336904671, 3,  !- X,Y,Z Vertex 1 {m}
  47.8085773813127, 71.1949336904671, 0,  !- X,Y,Z Vertex 2 {m}
  1.51572976392345e-010, 55.144026913054, 0, !- X,Y,Z Vertex 3 {m}
  1.51572976392345e-010, 55.144026913054, 3; !- X,Y,Z Vertex 4 {m}

FenestrationSurface:Detailed,
  Sub Surface 4,                          !- Name
  Window,                                 !- Surface Type
  U 0.48 SHGC 0.40 Dbl Ref-D Clr 6mm/13mm, !- Construction Name
  Surface 4,                              !- Building Surface Name
  ,                                       !- Outside Boundary Condition Object
  ,                                       !- View Factor to Ground
  ,                                       !- Frame and Divider Name
  ,                                       !- Multiplier
  ,                                       !- Number of Vertices
  47.7844982146788, 71.1868495248196, 1.66290749831775, !- X,Y,Z Vertex 1 {m}
  47.7844982146788, 71.1868495248196, 0.762, !- X,Y,Z Vertex 2 {m}
  0.024079166785512, 55.1521110787015, 0.762, !- X,Y,Z Vertex 3 {m}
  0.024079166785512, 55.1521110787015, 1.66290749831775; !- X,Y,Z Vertex 4 {m}

BuildingSurface:Detailed,
  Surface 5,                              !- Name
  Wall,                                   !- Surface Type
  Typical Insulated Exterior Mass Wall R-12.5, !- Construction Name
  Building Story 1 ThermalZone,           !- Zone Name
  Outdoors,                               !- Outside Boundary Condition
  ,                                       !- Outside Boundary Condition Object
  SunExposed,                             !- Sun Exposure
  WindExposed,                            !- Wind Exposure
  ,                                       !- View Factor to Ground
  ,                                       !- Number of Vertices
  66.4569353822702, 16.0511887939948, 3,  !- X,Y,Z Vertex 1 {m}
  66.4569353822702, 16.0511887939948, 0,  !- X,Y,Z Vertex 2 {m}
  47.8085773813127, 71.1949336904671, 0,  !- X,Y,Z Vertex 3 {m}
  47.8085773813127, 71.1949336904671, 3;  !- X,Y,Z Vertex 4 {m}

FenestrationSurface:Detailed,
  Sub Surface 3,                          !- Name
  Window,                                 !- Surface Type
  U 0.48 SHGC 0.40 Dbl Ref-D Clr 6mm/13mm, !- Construction Name
  Surface 5,                              !- Building Surface Name
  ,                                       !- Outside Boundary Condition Object
  ,                                       !- View Factor to Ground
  ,                                       !- Frame and Divider Name
  ,                                       !- Multiplier
  ,                                       !- Number of Vertices
  66.4487983777933, 16.0752501563449, 1.66278609607303, !- X,Y,Z Vertex 1 {m}
  66.4487983777933, 16.0752501563449, 0.762, !- X,Y,Z Vertex 2 {m}
  47.8167143857896, 71.170872328117, 0.762, !- X,Y,Z Vertex 3 {m}
  47.8167143857896, 71.170872328117, 1.66278609607303; !- X,Y,Z Vertex 4 {m}

BuildingSurface:Detailed,
  Surface 6,                              !- Name
  Ceiling,                                !- Surface Type
  LargeHotel Interior Ceiling,            !- Construction Name
  Building Story 1 ThermalZone,           !- Zone Name
  Adiabatic,                              !- Outside Boundary Condition
  ,                                       !- Outside Boundary Condition Object
  NoSun,                                  !- Sun Exposure
  NoWind,                                 !- Wind Exposure
  ,                                       !- View Factor to Ground
  ,                                       !- Number of Vertices
  47.8085773813127, 71.1949336904671, 3,  !- X,Y,Z Vertex 1 {m}
  1.51572976392345e-010, 55.144026913054, 3, !- X,Y,Z Vertex 2 {m}
  18.6480189839926, 2.52226893593388e-005, 3, !- X,Y,Z Vertex 3 {m}
  66.4569353822702, 16.0511887939948, 3;  !- X,Y,Z Vertex 4 {m}

Daylighting:Controls,
  Building Story 1 ThermalZone DaylightingControls, !- Name
  Building Story 1 ThermalZone,           !- Zone Name
  ,                                       !- Daylighting Method
  ,                                       !- Availability Schedule Name
  Stepped,                                !- Lighting Control Type
  0.3,                                    !- Minimum Input Power Fraction for Continuous or ContinuousOff Dimming Control
  0.2,                                    !- Minimum Light Output Fraction for Continuous or ContinuousOff Dimming Control
  3,                                      !- Number of Stepped Control Steps
  1,                                      !- Probability Lighting will be Reset When Needed in Manual Stepped Control
  Building Story 1 Space Daylt Sensor 1,  !- Glare Calculation Daylighting Reference Point Name
  -0,                                     !- Glare Calculation Azimuth Angle of View Direction Clockwise from Zone y-Axis {deg}
  22,                                     !- Maximum Allowable Discomfort Glare Index
  ,                                       !- DElight Gridding Resolution {m2}
  Building Story 1 Space Daylt Sensor 1,  !- Daylighting Reference Point Name 1
  0.119,                                  !- Fraction of Zone Controlled by Reference Point 1
  300,                                    !- Illuminance Setpoint at Reference Point 1 {lux}
  Building Story 1 Space Daylt Sensor 2,  !- Daylighting Reference Point Name 2
  0.88,                                   !- Fraction of Zone Controlled by Reference Point 2
  300;                                    !- Illuminance Setpoint at Reference Point 2 {lux}

Daylighting:ReferencePoint,
  Building Story 1 Space Daylt Sensor 1,  !- Name
  Building Story 1 ThermalZone,           !- Zone Name
  42.2031623811022,                       !- X-Coordinate of Reference Point {m}
  9.06605258680147,                       !- Y-Coordinate of Reference Point {m}
  0.762;                                  !- Z-Coordinate of Reference Point {m}

Daylighting:ReferencePoint,
  Building Story 1 Space Daylt Sensor 2,  !- Name
  Building Story 1 ThermalZone,           !- Zone Name
  41.8485549305575,                       !- X-Coordinate of Reference Point {m}
  10.1222624922072,                       !- Y-Coordinate of Reference Point {m}
  0.762;                                  !- Z-Coordinate of Reference Point {m}

ZoneControl:Thermostat,
  Building Story 1 ThermalZone Thermostat, !- Name
  Building Story 1 ThermalZone,           !- Zone or ZoneList Name
  Building Story 1 ThermalZone Thermostat Schedule, !- Control Type Schedule Name
  ThermostatSetpoint:DualSetpoint,        !- Control Object Type 1
  Story Ground Blended Space Type Thermostat; !- Control Name 1

Schedule:Compact,
  Building Story 1 ThermalZone Thermostat Schedule, !- Name
  Building Story 1 ThermalZone Thermostat Schedule Type Limits, !- Schedule Type Limits Name
  Through: 12/31,                         !- Field 1
  For: AllDays,                           !- Field 2
  Until: 24:00,                           !- Field 3
  4;                                      !- Field 4

ScheduleTypeLimits,
  Building Story 1 ThermalZone Thermostat Schedule Type Limits, !- Name
  0,                                      !- Lower Limit Value {BasedOnField A3}
  4,                                      !- Upper Limit Value {BasedOnField A3}
  DISCRETE;                               !- Numeric Type

ThermostatSetpoint:DualSetpoint,
  Story Ground Blended Space Type Thermostat, !- Name
  HotelLarge HTGSETP_SCH,                 !- Heating Setpoint Temperature Schedule Name
  HotelLarge CLGSETP_SCH;                 !- Cooling Setpoint Temperature Schedule Name

ScheduleTypeLimits,
  Temperature,                            !- Name
  0,                                      !- Lower Limit Value {BasedOnField A3}
  100,                                    !- Upper Limit Value {BasedOnField A3}
  Continuous,                             !- Numeric Type
  temperature;                            !- Unit Type

Schedule:Day:Interval,
  HotelLarge HTGSETP_SCH Default,         !- Name
  Temperature,                            !- Schedule Type Limits Name
  No,                                     !- Interpolate to Timestep
  24:00,                                  !- Time 1 {hh:mm}
  21;                                     !- Value Until Time 1

Schedule:Week:Daily,
  HotelLarge HTGSETP_SCH Week Rule - Jan1-Dec31, !- Name
  HotelLarge HTGSETP_SCH Default,         !- Sunday Schedule:Day Name
  HotelLarge HTGSETP_SCH Default,         !- Monday Schedule:Day Name