
OS:Version,
  {6f448754-d47d-470f-922e-f03d93d000ca}, !- Handle
  2.8.1;                                  !- Version Identifier

OS:Facility,
  {78fb9f52-cf46-4919-a1f6-28b5c01fc9a1}; !- Handle

OS:Site,
  {87a0c5f1-7aca-48f4-b320-02e3f9e0dc4c}, !- Handle
  Buffalo Niagara Intl Ap_NY_USA,         !- Name
  42.8197487909843,                       !- Latitude {deg}
  -78.8497235380296,                      !- Longitude {deg}
  -5,                                     !- Time Zone {hr}
  215,                                    !- Elevation {m}
  City;                                   !- Terrain

OS:SimulationControl,
  {2bb785fa-85e3-4ef0-9458-0a64b2a988ff}, !- Handle
  ,                                       !- Do Zone Sizing Calculation
  ,                                       !- Do System Sizing Calculation
  ,                                       !- Do Plant Sizing Calculation
  Yes,                                    !- Run Simulation for Sizing Periods
  No;                                     !- Run Simulation for Weather File Run Periods

OS:Sizing:Parameters,
  {cc921a4d-7e50-4763-a7d3-2daef3656e8c}, !- Handle
  1.25,                                   !- Heating Sizing Factor
  1.15;                                   !- Cooling Sizing Factor

OS:Timestep,
  {37f257f5-c1a0-424c-afc5-f95f213a5410}, !- Handle
  1;                                      !- Number of Timesteps per Hour

OS:ShadowCalculation,
  {55dc32ee-c243-4666-904e-892f8d6a2d11}, !- Handle
  20,                                     !- Calculation Frequency
  15000;                                  !- Maximum Figures in Shadow Overlap Calculations

OS:HeatBalanceAlgorithm,
  {f6612db6-b146-445c-84d8-df1854a8ad49}, !- Handle
  ConductionTransferFunction,             !- Algorithm
  200;                                    !- Surface Temperature Upper Limit {C}

OS:RunPeriod,
  {a9a68c1e-f7ef-4328-b838-b36d1f045818}, !- Handle
  Run Period 1,                           !- Name
  1,                                      !- Begin Month
  1,                                      !- Begin Day of Month
  12,                                     !- End Month
  31,                                     !- End Day of Month
  ,                                       !- Use Weather File Holidays and Special Days
  ,                                       !- Use Weather File Daylight Saving Period
  ,                                       !- Apply Weekend Holiday Rule
  ,                                       !- Use Weather File Rain Indicators
  ,                                       !- Use Weather File Snow Indicators
  ;                                       !- Number of Times Runperiod to be Repeated

OS:LifeCycleCost:Parameters,
  {13afccd6-9386-4bfc-bac5-97fc3aa88e58}, !- Handle
  ,                                       !- Analysis Type
  ,                                       !- Discounting Convention
  ,                                       !- Inflation Approach
  ,                                       !- Real Discount Rate
  ,                                       !- Nominal Discount Rate
  ,                                       !- Inflation
  ,                                       !- Base Date Month
  ,                                       !- Base Date Year
  ,                                       !- Service Date Month
  ,                                       !- Service Date Year
  ;                                       !- Length of Study Period in Years

OS:YearDescription,
  {d8b14982-cb26-4b2b-9471-448652692ee3}, !- Handle
  2019,                                   !- Calendar Year
  ,                                       !- Day of Week for Start Day
  ;                                       !- Is Leap Year

OS:WeatherFile,
  {16d6d636-0181-41f5-aae5-d3b18d88e02c}, !- Handle
  Buffalo Niagara Intl Ap,                !- City
  NY,                                     !- State Province Region
  USA,                                    !- Country
  TMY3,                                   !- Data Source
  725280,                                 !- WMO Number
  42.93,                                  !- Latitude {deg}
  -78.73,                                 !- Longitude {deg}
  -5,                                     !- Time Zone {hr}
  215,                                    !- Elevation {m}
  file:///C:/urbanopt-example-reopt-project/run/baseline_scenario/13/006_create_typical_building_from_model/SR1/in.epw, !- Url
  6B50E0FF;                               !- Checksum

OS:Site:WaterMainsTemperature,
  {89b31a3d-9083-4158-a159-36de06612ebd}, !- Handle
  Correlation,                            !- Calculation Method
  ,                                       !- Temperature Schedule Name
  8.96666666666667,                       !- Annual Average Outdoor Air Temperature {C}
  26.2;                                   !- Maximum Difference In Monthly Average Outdoor Air Temperatures {deltaC}

OS:SizingPeriod:DesignDay,
  {27313380-b12e-4391-94a9-878d66c5f7fc}, !- Handle
  Buffalo Niagara Intl Ap Ann Clg .4% Condns DB=>MWB 1, !- Name
  30.3,                                   !- Maximum Dry-Bulb Temperature {C}
  9.3,                                    !- Daily Dry-Bulb Temperature Range {deltaC}
  21.8,                                   !- Humidity Indicating Conditions at Maximum Dry-Bulb
  98769,                                  !- Barometric Pressure {Pa}
  5.7,                                    !- Wind Speed {m/s}
  240,                                    !- Wind Direction {deg}
  0,                                      !- Sky Clearness
  0,                                      !- Rain Indicator
  0,                                      !- Snow Indicator
  21,                                     !- Day of Month
  7,                                      !- Month
  SummerDesignDay,                        !- Day Type
  0,                                      !- Daylight Saving Time Indicator
  Wetbulb,                                !- Humidity Indicating Type
  ,                                       !- Humidity Indicating Day Schedule Name
  DefaultMultipliers,                     !- Dry-Bulb Temperature Range Modifier Type
  ,                                       !- Dry-Bulb Temperature Range Modifier Schedule Name
  ASHRAETau,                              !- Solar Model Indicator
  ,                                       !- Beam Solar Day Schedule Name
  ,                                       !- Diffuse Solar Day Schedule Name
  0.462,                                  !- ASHRAE Taub {dimensionless}
  2.001;                                  !- ASHRAE Taud {dimensionless}

OS:SizingPeriod:DesignDay,
  {cbdadde0-40ea-489e-8fc2-f6c78f18595e}, !- Handle
  Buffalo Niagara Intl Ap Ann Clg .4% Condns WB=>MDB 1, !- Name
  27.8,                                   !- Maximum Dry-Bulb Temperature {C}
  9.3,                                    !- Daily Dry-Bulb Temperature Range {deltaC}
  23.8,                                   !- Humidity Indicating Conditions at Maximum Dry-Bulb
  98769,                                  !- Barometric Pressure {Pa}
  5.7,                                    !- Wind Speed {m/s}
  240,                                    !- Wind Direction {deg}
  0,                                      !- Sky Clearness
  0,                                      !- Rain Indicator
  0,                                      !- Snow Indicator
  21,                                     !- Day of Month
  7,                                      !- Month
  SummerDesignDay,                        !- Day Type
  0,                                      !- Daylight Saving Time Indicator
  Wetbulb,                                !- Humidity Indicating Type
  ,                                       !- Humidity Indicating Day Schedule Name
  DefaultMultipliers,                     !- Dry-Bulb Temperature Range Modifier Type
  ,                                       !- Dry-Bulb Temperature Range Modifier Schedule Name
  ASHRAETau,                              !- Solar Model Indicator
  ,                                       !- Beam Solar Day Schedule Name
  ,                                       !- Diffuse Solar Day Schedule Name
  0.462,                                  !- ASHRAE Taub {dimensionless}
  2.001;                                  !- ASHRAE Taud {dimensionless}

OS:SizingPeriod:DesignDay,
  {36d9a0c0-4ccc-4ad4-a841-407aecf8970a}, !- Handle
  Buffalo Niagara Intl Ap Ann Htg 99.6% Condns DB 1, !- Name
  -16.3,                                  !- Maximum Dry-Bulb Temperature {C}
  0,                                      !- Daily Dry-Bulb Temperature Range {deltaC}
  -16.3,                                  !- Humidity Indicating Conditions at Maximum Dry-Bulb
  98769,                                  !- Barometric Pressure {Pa}
  5.1,                                    !- Wind Speed {m/s}
  270,                                    !- Wind Direction {deg}
  0,                                      !- Sky Clearness
  0,                                      !- Rain Indicator
  0,                                      !- Snow Indicator
  21,                                     !- Day of Month
  1,                                      !- Month
  WinterDesignDay,                        !- Day Type
  0,                                      !- Daylight Saving Time Indicator
  Wetbulb,                                !- Humidity Indicating Type
  ,                                       !- Humidity Indicating Day Schedule Name
  DefaultMultipliers,                     !- Dry-Bulb Temperature Range Modifier Type
  ,                                       !- Dry-Bulb Temperature Range Modifier Schedule Name
  ASHRAEClearSky;                         !- Solar Model Indicator

OS:ClimateZones,
  {5e94c8f7-afbd-4183-9b63-8bad304eecad}, !- Handle
  ,                                       !- Active Institution
  ,                                       !- Active Year
  ASHRAE,                                 !- Climate Zone Institution Name 1
  ANSI/ASHRAE Standard 169,               !- Climate Zone Document Name 1
  2006,                                   !- Climate Zone Document Year 1
  6A;                                     !- Climate Zone Value 1

OS:RunPeriodControl:DaylightSavingTime,
  {11ccda06-404a-4d2c-b705-b9cacc5d4f8e}, !- Handle
  2nd Sunday in March,                    !- Start Date
  1st Sunday in November;                 !- End Date

OS:People:Definition,
  {510ba2c6-597e-4a94-a455-8265853c6279}, !- Handle
  LargeHotel Cafe People Definition,      !- Name
  People/Area,                            !- Number of People Calculation Method
  ,                                       !- Number of People {people}
  0.753473729169681,                      !- People per Space Floor Area {person/m2}
  ,                                       !- Space Floor Area per Person {m2/person}
  0.3;                                    !- Fraction Radiant

OS:Schedule:Ruleset,
  {4f8ddfaa-473e-4c45-9a12-60b50f0f0f2d}, !- Handle
  Clothing Schedule,                      !- Name
  {8b00ce83-f38c-4e99-bdfc-e66be3d5f84e}, !- Schedule Type Limits Name
  {4b726259-6473-40ad-a66a-e46601e650d8}; !- Default Day Schedule Name

OS:Schedule:Day,
  {4b726259-6473-40ad-a66a-e46601e650d8}, !- Handle
  Clothing Schedule Default Winter Clothes, !- Name
  {8b00ce83-f38c-4e99-bdfc-e66be3d5f84e}, !- Schedule Type Limits Name
  ,                                       !- Interpolate to Timestep
  24,                                     !- Hour 1
  0,                                      !- Minute 1
  1;                                      !- Value Until Time 1

OS:Schedule:Rule,
  {96962fed-f033-4bd2-afe7-4f4c33fbb4bc}, !- Handle
  Schedule Rule 1,                        !- Name
  {4f8ddfaa-473e-4c45-9a12-60b50f0f0f2d}, !- Schedule Ruleset Name
  0,                                      !- Rule Order
  {ef230fa6-74d9-4add-a440-7779a44f122b}, !- Day Schedule Name
  ,                                       !- Apply Sunday
  ,                                       !- Apply Monday
  ,                                       !- Apply Tuesday
  ,                                       !- Apply Wednesday
  ,                                       !- Apply Thursday
  ,                                       !- Apply Friday
  ,                                       !- Apply Saturday
  ,                                       !- Apply Holiday
  DateRange,                              !- Date Specification Type
  5,                                      !- Start Month
  1,                                      !- Start Day
  9,                                      !- End Month
  30;                                     !- End Day

OS:Schedule:Day,
  {ef230fa6-74d9-4add-a440-7779a44f122b}, !- Handle
  Clothing Schedule Summer Clothes,       !- Name
  {8b00ce83-f38c-4e99-bdfc-e66be3d5f84e}, !- Schedule Type Limits Name
  ,                                       !- Interpolate to Timestep
  24,                                     !- Hour 1
  0,                                      !- Minute 1
  0.5;                                    !- Value Until Time 1

OS:ScheduleTypeLimits,
  {8b00ce83-f38c-4e99-bdfc-e66be3d5f84e}, !- Handle
  ClothingInsulation,                     !- Name
  0,                                      !- Lower Limit Value
  ,                                       !- Upper Limit Value
  Continuous,                             !- Numeric Type
  ClothingInsulation;                     !- Unit Type

OS:Schedule:Ruleset,
  {6f4e940c-705a-41a5-83af-0a86a7b73f38}, !- Handle
  Air Velocity Schedule,                  !- Name
  {48dac359-cf72-4ea4-a855-ba4d8ed4c038}, !- Schedule Type Limits Name
  {6bd08a16-330c-40d4-9b6d-2a5d60f93a2e}; !- Default Day Schedule Name

OS:Schedule:Day,
  {6bd08a16-330c-40d4-9b6d-2a5d60f93a2e}, !- Handle
  Air Velocity Schedule Default,          !- Name
  {48dac359-cf72-4ea4-a855-ba4d8ed4c038}, !- Schedule Type Limits Name
  ,                                       !- Interpolate to Timestep
  24,                                     !- Hour 1
  0,                                      !- Minute 1
  0.2;                                    !- Value Until Time 1

OS:ScheduleTypeLimits,
  {48dac359-cf72-4ea4-a855-ba4d8ed4c038}, !- Handle
  Velocity,                               !- Name
  0,                                      !- Lower Limit Value
  ,                                       !- Upper Limit Value
  Continuous,                             !- Numeric Type
  Velocity;                               !- Unit Type

OS:Schedule:Ruleset,
  {611771ca-52f9-4a80-af3f-f19dd54ac1c1}, !- Handle
  Work Efficiency Schedule,               !- Name
  {2cd81f1e-efc0-49b0-b6b0-62da75df141c}, !- Schedule Type Limits Name
  {3acc3c72-eb4a-45ff-8c28-2f611f5c1084}; !- Default Day Schedule Name

OS:Schedule:Day,
  {3acc3c72-eb4a-45ff-8c28-2f611f5c1084}, !- Handle
  Work Efficiency Schedule Default,       !- Name
  {2cd81f1e-efc0-49b0-b6b0-62da75df141c}, !- Schedule Type Limits Name
  ,                                       !- Interpolate to Timestep
  24,                                     !- Hour 1
  0,                                      !- Minute 1
  0;                                      !- Value Until Time 1

OS:ScheduleTypeLimits,
  {2cd81f1e-efc0-49b0-b6b0-62da75df141c}, !- Handle
  Fractional,                             !- Name
  0,                                      !- Lower Limit Value
  1,                                      !- Upper Limit Value
  Continuous;                             !- Numeric Type

OS:Lights:Definition,
  {f84496e7-255f-4c30-8f3c-a784cd0453b2}, !- Handle
  LargeHotel Cafe Lights Definition,      !- Name
  Watts/Area,                             !- Design Level Calculation Method
  ,                                       !- Lighting Level {W}
  9.57988027087165,                       !- Watts per Space Floor Area {W/m2}
  ,                                       !- Watts per Person {W/person}
  0.7,                                    !- Fraction Radiant
  0.2;                                    !- Fraction Visible

OS:AdditionalProperties,
  {c54c02dd-bfff-42fa-87e1-9899b254e7f6}, !- Handle
  {f84496e7-255f-4c30-8f3c-a784cd0453b2}, !- Object Name
  lpd_fraction_linear_fluorescent,        !- Feature Name 1
  Double,                                 !- Feature Data Type 1
  1;                                      !- Feature Value 1

OS:ElectricEquipment:Definition,
  {48b79354-5dbc-4d96-85e1-1201602cbaee}, !- Handle
  LargeHotel Cafe Elec Equip Definition,  !- Name
  Watts/Area,                             !- Design Level Calculation Method
  ,                                       !- Design Level {W}
  5.38195520835486,                       !- Watts per Space Floor Area {W/m2}
  ,                                       !- Watts per Person {W/person}
  ,                                       !- Fraction Latent
  0.5;                                    !- Fraction Radiant

OS:DesignSpecification:OutdoorAir,
  {92f02d80-c91d-4ef8-b3da-607ee4aa0277}, !- Handle
  LargeHotel Cafe Ventilation,            !- Name
  Sum,                                    !- Outdoor Air Method
  0.003539605824,                         !- Outdoor Air Flow per Person {m3/s-person}
  0.0009144,                              !- Outdoor Air Flow per Floor Area {m3/s-m2}
  ,                                       !- Outdoor Air Flow Rate {m3/s}
  ,                                       !- Outdoor Air Flow Air Changes per Hour {1/hr}
  ;                                       !- Outdoor Air Flow Rate Fraction Schedule Name

OS:DefaultScheduleSet,
  {0f0dc4f1-200e-4f6c-a4e5-4aae417c7a19}, !- Handle
  LargeHotel Cafe Schedule Set,           !- Name
  ,                                       !- Hours of Operation Schedule Name
  {acbe84b2-acf6-4adc-aa2c-bc8c5048a359}, !- Number of People Schedule Name
  {3a9e0a02-10d4-4ad0-9abb-ea11f794b995}, !- People Activity Level Schedule Name
  {3b749fa9-7656-412f-bdcc-1dbe34842ace}, !- Lighting Schedule Name
  {af276b86-4765-43c3-a8df-bf11b322d847}, !- Electric Equipment Schedule Name
  ,                                       !- Gas Equipment Schedule Name
  ,                                       !- Hot Water Equipment Schedule Name
  {0249cb18-dea1-478f-9155-d3a54bbfa9bc}, !- Infiltration Schedule Name
  ,                                       !- Steam Equipment Schedule Name
  ;                                       !- Other Equipment Schedule Name

OS:Schedule:Ruleset,
  {acbe84b2-acf6-4adc-aa2c-bc8c5048a359}, !- Handle
  HotelLarge BLDG_OCC_SCH,                !- Name
  {2cd81f1e-efc0-49b0-b6b0-62da75df141c}, !- Schedule Type Limits Name
  {3691142a-9675-4434-9c34-4611455faa28}, !- Default Day Schedule Name
  {78dad433-52ec-42ca-b445-82d7b59530d1}, !- Summer Design Day Schedule Name
  {1c3f47cd-4642-4125-8897-2c9cd2b4d83f}; !- Winter Design Day Schedule Name

OS:Schedule:Day,
  {3691142a-9675-4434-9c34-4611455faa28}, !- Handle
  HotelLarge BLDG_OCC_SCH Default,        !- Name
  {2cd81f1e-efc0-49b0-b6b0-62da75df141c}, !- Schedule Type Limits Name
  ,                                       !- Interpolate to Timestep
  8,                                      !- Hour 1
  0,                                      !- Minute 1
  0.7,                                    !- Value Until Time 1
  11,                                     !- Hour 2
  0,                                      !- Minute 2
  0.5,                                    !- Value Until Time 2
  13,                                     !- Hour 3
  0,                                      !- Minute 3
  0.3,                                    !- Value Until Time 3
  16,                                     !- Hour 4
  0,                                      !- Minute 4
  0.2,                                    !- Value Until Time 4
  17,                                     !- Hour 5
  0,                                      !- Minute 5
  0.3,                                    !- Value Until Time 5
  19,                                     !- Hour 6
  0,                                      !- Minute 6
  0.4,                                    !- Value Until Time 6
  21,                                     !- Hour 7
  0,                                      !- Minute 7
  0.6,                                    !- Value Until Time 7
  24,                                     !- Hour 8
  0,                                      !- Minute 8
  0.8;                                    !- Value Until Time 8

OS:Schedule:Rule,
  {8c1dbd87-16ae-4021-aff5-560b402e8e40}, !- Handle
  Schedule Rule 2,                        !- Name
  {acbe84b2-acf6-4adc-aa2c-bc8c5048a359}, !- Schedule Ruleset Name
  1,                                      !- Rule Order
  {b5ddf72b-e0bf-4e67-b094-d4a74230b07e}, !- Day Schedule Name
  ,                                       !- Apply Sunday
  ,                                       !- Apply Monday
  ,                                       !- Apply Tuesday
  ,                                       !- Apply Wednesday
  ,                                       !- Apply Thursday
  ,                                       !- Apply Friday
  Yes,                                    !- Apply Saturday
  ,                                       !- Apply Holiday
  DateRange,                              !- Date Specification Type
  1,                                      !- Start Month
  1,                                      !- Start Day
  12,                                     !- End Month
  31;                                     !- End Day

OS:Schedule:Day,
  {b5ddf72b-e0bf-4e67-b094-d4a74230b07e}, !- Handle
  HotelLarge BLDG_OCC_SCH Sat Day,        !- Name
  {2cd81f1e-efc0-49b0-b6b0-62da75df141c}, !- Schedule Type Limits Name
  ,                                       !- Interpolate to Timestep
  6,                                      !- Hour 1
  0,                                      !- Minute 1
  0.9,                                    !- Value Until Time 1
  7,                                      !- Hour 2
  0,                                      !- Minute 2
  0.7,                                    !- Value Until Time 2
  9,                                      !- Hour 3
  0,                                      !- Minute 3
  0.5,                                    !- Value Until Time 3
  17,                                     !- Hour 4
  0,                                      !- Minute 4
  0.3,                                    !- Value Until Time 4
  18,                                     !- Hour 5
  0,                                      !- Minute 5
  0.5,                                    !- Value Until Time 5
  21,                                     !- Hour 6
  0,                                      !- Minute 6
  0.6,                                    !- Value Until Time 6
  24,                                     !- Hour 7
  0,                                      !- Minute 7
  0.7;                                    !- Value Until Time 7

OS:Schedule:Day,
  {78dad433-52ec-42ca-b445-82d7b59530d1}, !- Handle
  HotelLarge BLDG_OCC_SCH Summer Design Day, !- Name
  {2cd81f1e-efc0-49b0-b6b0-62da75df141c}, !- Schedule Type Limits Name
  ,                                       !- Interpolate to Timestep
  24,                                     !- Hour 1
  0,                                      !- Minute 1
  1;                                      !- Value Until Time 1

OS:Schedule:Rule,
  {e0c8000f-161a-4c9b-9ee7-1f1393bec9ec}, !- Handle
  Schedule Rule 3,                        !- Name
  {acbe84b2-acf6-4adc-aa2c-bc8c5048a359}, !- Schedule Ruleset Name
  0,                                      !- Rule Order
  {3514c787-3e44-4d81-9cf9-69d5e760f548}, !- Day Schedule Name
  ,                                       !- Apply Sunday
  Yes,                                    !- Apply Monday
  Yes,                                    !- Apply Tuesday
  Yes,                                    !- Apply Wednesday
  Yes,                                    !- Apply Thursday
  Yes,                                    !- Apply Friday
  ,                                       !- Apply Saturday
  ,                                       !- Apply Holiday
  DateRange,                              !- Date Specification Type
  1,                                      !- Start Month
  1,                                      !- Start Day
  12,                                     !- End Month
  31;                                     !- End Day

OS:Schedule:Day,
  {3514c787-3e44-4d81-9cf9-69d5e760f548}, !- Handle
  HotelLarge BLDG_OCC_SCH Wkdy Day,       !- Name
  {2cd81f1e-efc0-49b0-b6b0-62da75df141c}, !- Schedule Type Limits Name
  ,                                       !- Interpolate to Timestep
  6,                                      !- Hour 1
  0,                                      !- Minute 1
  0.9,                                    !- Value Until Time 1
  7,                                      !- Hour 2
  0,                                      !- Minute 2
  0.7,                                    !- Value Until Time 2
  9,                                      !- Hour 3
  0,                                      !- Minute 3
  0.4,                                    !- Value Until Time 3
  15,                                     !- Hour 4
  0,                                      !- Minute 4
  0.2,                                    !- Value Until Time 4
  16,                                     !- Hour 5
  0,                                      !- Minute 5
  0.3,                                    !- Value Until Time 5
  19,                                     !- Hour 6
  0,                                      !- Minute 6
  0.5,                                    !- Value Until Time 6
  21,                                     !- Hour 7
  0,                                      !- Minute 7
  0.7,                                    !- Value Until Time 7
  22,                                     !- Hour 8
  0,                                      !- Minute 8
  0.8,                                    !- Value Until Time 8
  24,                                     !- Hour 9
  0,                                      !- Minute 9
  0.9;                                    !- Value Until Time 9

OS:Schedule:Day,
  {1c3f47cd-4642-4125-8897-2c9cd2b4d83f}, !- Handle
  HotelLarge BLDG_OCC_SCH Winter Design Day, !- Name
  {2cd81f1e-efc0-49b0-b6b0-62da75df141c}, !- Schedule Type Limits Name
  ,                                       !- Interpolate to Timestep
  24,                                     !- Hour 1
  0,                                      !- Minute 1
  0;                                      !- Value Until Time 1

OS:Schedule:Ruleset,
  {3a9e0a02-10d4-4ad0-9abb-ea11f794b995}, !- Handle
  HotelLarge ACTIVITY_SCH,                !- Name
  {4b65d8ef-5d12-42bd-b19d-c69ab4eb27e8}, !- Schedule Type Limits Name
  {c7b569bb-c9f1-4c38-bd29-eb674dd8b08f}, !- Default Day Schedule Name
  {42084ad7-68ae-4f5d-bda2-6b16c15ed181}, !- Summer Design Day Schedule Name
  {d722a778-1639-4039-8513-1ba6713a543c}; !- Winter Design Day Schedule Name

OS:Schedule:Day,
  {c7b569bb-c9f1-4c38-bd29-eb674dd8b08f}, !- Handle
  HotelLarge ACTIVITY_SCH Default,        !- Name
  {4b65d8ef-5d12-42bd-b19d-c69ab4eb27e8}, !- Schedule Type Limits Name
  ,                                       !- Interpolate to Timestep
  24,                                     !- Hour 1
  0,                                      !- Minute 1
  120;                                    !- Value Until Time 1

OS:Schedule:Day,
  {d722a778-1639-4039-8513-1ba6713a543c}, !- Handle
  HotelLarge ACTIVITY_SCH Winter Design Day, !- Name
  {4b65d8ef-5d12-42bd-b19d-c69ab4eb27e8}, !- Schedule Type Limits Name
  ,                                       !- Interpolate to Timestep
  24,                                     !- Hour 1
  0,                                      !- Minute 1
  120;                                    !- Value Until Time 1

OS:Schedule:Day,
  {42084ad7-68ae-4f5d-bda2-6b16c15ed181}, !- Handle
  HotelLarge ACTIVITY_SCH Summer Design Day, !- Name
  {4b65d8ef-5d12-42bd-b19d-c69ab4eb27e8}, !- Schedule Type Limits Name
  ,                                       !- Interpolate to Timestep
  24,                                     !- Hour 1
  0,                                      !- Minute 1
  120;                                    !- Value Until Time 1

OS:ScheduleTypeLimits,
  {4b65d8ef-5d12-42bd-b19d-c69ab4eb27e8}, !- Handle
  ActivityLevel,                          !- Name
  0,                                      !- Lower Limit Value
  ,                                       !- Upper Limit Value
  Continuous,                             !- Numeric Type
  ActivityLevel;                          !- Unit Type

OS:Schedule:Ruleset,
  {3b749fa9-7656-412f-bdcc-1dbe34842ace}, !- Handle
  HotelLarge BLDG_LIGHT_SCH_2013,         !- Name
  {2cd81f1e-efc0-49b0-b6b0-62da75df141c}, !- Schedule Type Limits Name
  {d221f4a8-8141-424f-94f0-58c4fab8d8ed}, !- Default Day Schedule Name
  {cc686f30-fe21-4a88-8f6a-b8c900fdbff6}, !- Summer Design Day Schedule Name
  {fcaf997c-5959-4671-b1a4-95af9c43cdf4}; !- Winter Design Day Schedule Name

OS:Schedule:Day,
  {d221f4a8-8141-424f-94f0-58c4fab8d8ed}, !- Handle
  HotelLarge BLDG_LIGHT_SCH_2013 Default, !- Name
  {2cd81f1e-efc0-49b0-b6b0-62da75df141c}, !- Schedule Type Limits Name
  ,                                       !- Interpolate to Timestep
  2,                                      !- Hour 1
  0,                                      !- Minute 1
  0.3,                                    !- Value Until Time 1
  6,                                      !- Hour 2
  0,                                      !- Minute 2
  0.2,                                    !- Value Until Time 2
  7,                                      !- Hour 3