
OS:Version,
  {af8ccd61-33bb-48a4-99c8-fc5c87800d9f}, !- Handle
  2.8.1;                                  !- Version Identifier

OS:Facility,
  {242ea040-a3f9-4720-a549-2b79400e7445}; !- Handle

OS:Site,
  {3634c22d-e50c-46f6-9bb9-25e56bb1c199}, !- Handle
  Buffalo Niagara Intl Ap_NY_USA,         !- Name
  42.813153418927,                        !- Latitude {deg}
  -78.8478679776468,                      !- Longitude {deg}
  -5,                                     !- Time Zone {hr}
  215,                                    !- Elevation {m}
  City;                                   !- Terrain

OS:SimulationControl,
  {405e7ff8-632a-49de-b53e-95f926b38ee0}, !- Handle
  ,                                       !- Do Zone Sizing Calculation
  ,                                       !- Do System Sizing Calculation
  ,                                       !- Do Plant Sizing Calculation
  No,                                     !- Run Simulation for Sizing Periods
  Yes;                                    !- Run Simulation for Weather File Run Periods

OS:Sizing:Parameters,
  {3c521327-b12a-4c1f-829b-e042da748b4c}, !- Handle
  1.25,                                   !- Heating Sizing Factor
  1.15;                                   !- Cooling Sizing Factor

OS:Timestep,
  {a117a8f1-7c5e-4878-aa4a-383fa193593e}, !- Handle
  1;                                      !- Number of Timesteps per Hour

OS:ShadowCalculation,
  {1e57477a-de12-410d-9e4a-24e6103b909c}, !- Handle
  20,                                     !- Calculation Frequency
  15000;                                  !- Maximum Figures in Shadow Overlap Calculations

OS:HeatBalanceAlgorithm,
  {c625830e-8cae-45e9-8ea9-1aee6c1d1b84}, !- Handle
  ConductionTransferFunction,             !- Algorithm
  200;                                    !- Surface Temperature Upper Limit {C}

OS:RunPeriod,
  {7c9d969c-04d0-4f1d-aa94-169e06a37099}, !- Handle
  Run Period 1,                           !- Name
  1,                                      !- Begin Month
  1,                                      !- Begin Day of Month
  12,                                     !- End Month
  31,                                     !- End Day of Month
  ,                                       !- Use Weather File Holidays and Special Days
  ,                                       !- Use Weather File Daylight Saving Period
  ,                                       !- Apply Weekend Holiday Rule
  ,                                       !- Use Weather File Rain Indicators
  ,                                       !- Use Weather File Snow Indicators
  ;                                       !- Number of Times Runperiod to be Repeated

OS:LifeCycleCost:Parameters,
  {e7ca7a79-5cd1-48f8-97aa-cf3547dbba09}, !- Handle
  ,                                       !- Analysis Type
  ,                                       !- Discounting Convention
  ,                                       !- Inflation Approach
  ,                                       !- Real Discount Rate
  ,                                       !- Nominal Discount Rate
  ,                                       !- Inflation
  ,                                       !- Base Date Month
  ,                                       !- Base Date Year
  ,                                       !- Service Date Month
  ,                                       !- Service Date Year
  ;                                       !- Length of Study Period in Years

OS:YearDescription,
  {dbef08c2-3d16-4d4f-8b57-34132a6f700a}, !- Handle
  2019,                                   !- Calendar Year
  ,                                       !- Day of Week for Start Day
  ;                                       !- Is Leap Year

OS:WeatherFile,
  {d0772543-0292-4e4b-8999-398342ec9f20}, !- Handle
  Buffalo Niagara Intl Ap,                !- City
  NY,                                     !- State Province Region
  USA,                                    !- Country
  TMY3,                                   !- Data Source
  725280,                                 !- WMO Number
  42.93,                                  !- Latitude {deg}
  -78.73,                                 !- Longitude {deg}
  -5,                                     !- Time Zone {hr}
  215,                                    !- Elevation {m}
  file:///C:/urbanopt-example-reopt-project/weather/USA_NY_Buffalo-Greater.Buffalo.Intl.AP.725280_TMY3.epw, !- Url
  ;                                       !- Checksum

OS:Site:WaterMainsTemperature,
  {4a6ba0fe-0b3f-4bc9-9335-944c1fe37098}, !- Handle
  Correlation,                            !- Calculation Method
  ,                                       !- Temperature Schedule Name
  8.96666666666667,                       !- Annual Average Outdoor Air Temperature {C}
  26.2;                                   !- Maximum Difference In Monthly Average Outdoor Air Temperatures {deltaC}

OS:SizingPeriod:DesignDay,
  {14a66177-c861-4f0e-be96-a3e1ab49fc4a}, !- Handle
  Buffalo Niagara Intl Ap Ann Clg .4% Condns DB=>MWB 1, !- Name
  30.3,                                   !- Maximum Dry-Bulb Temperature {C}
  9.3,                                    !- Daily Dry-Bulb Temperature Range {deltaC}
  21.8,                                   !- Humidity Indicating Conditions at Maximum Dry-Bulb
  98769,                                  !- Barometric Pressure {Pa}
  5.7,                                    !- Wind Speed {m/s}
  240,                                    !- Wind Direction {deg}
  0,                                      !- Sky Clearness
  0,                                      !- Rain Indicator
  0,                                      !- Snow Indicator
  21,                                     !- Day of Month
  7,                                      !- Month
  SummerDesignDay,                        !- Day Type
  0,                                      !- Daylight Saving Time Indicator
  Wetbulb,                                !- Humidity Indicating Type
  ,                                       !- Humidity Indicating Day Schedule Name
  DefaultMultipliers,                     !- Dry-Bulb Temperature Range Modifier Type
  ,                                       !- Dry-Bulb Temperature Range Modifier Schedule Name
  ASHRAETau,                              !- Solar Model Indicator
  ,                                       !- Beam Solar Day Schedule Name
  ,                                       !- Diffuse Solar Day Schedule Name
  0.462,                                  !- ASHRAE Taub {dimensionless}
  2.001;                                  !- ASHRAE Taud {dimensionless}

OS:SizingPeriod:DesignDay,
  {9025a485-5881-415a-97c4-ddb6a75b5220}, !- Handle
  Buffalo Niagara Intl Ap Ann Clg .4% Condns WB=>MDB 1, !- Name
  27.8,                                   !- Maximum Dry-Bulb Temperature {C}
  9.3,                                    !- Daily Dry-Bulb Temperature Range {deltaC}
  23.8,                                   !- Humidity Indicating Conditions at Maximum Dry-Bulb
  98769,                                  !- Barometric Pressure {Pa}
  5.7,                                    !- Wind Speed {m/s}
  240,                                    !- Wind Direction {deg}
  0,                                      !- Sky Clearness
  0,                                      !- Rain Indicator
  0,                                      !- Snow Indicator
  21,                                     !- Day of Month
  7,                                      !- Month
  SummerDesignDay,                        !- Day Type
  0,                                      !- Daylight Saving Time Indicator
  Wetbulb,                                !- Humidity Indicating Type
  ,                                       !- Humidity Indicating Day Schedule Name
  DefaultMultipliers,                     !- Dry-Bulb Temperature Range Modifier Type
  ,                                       !- Dry-Bulb Temperature Range Modifier Schedule Name
  ASHRAETau,                              !- Solar Model Indicator
  ,                                       !- Beam Solar Day Schedule Name
  ,                                       !- Diffuse Solar Day Schedule Name
  0.462,                                  !- ASHRAE Taub {dimensionless}
  2.001;                                  !- ASHRAE Taud {dimensionless}

OS:SizingPeriod:DesignDay,
  {6bd2d50d-6244-4675-9e17-3e572a6cf601}, !- Handle
  Buffalo Niagara Intl Ap Ann Htg 99.6% Condns DB 1, !- Name
  -16.3,                                  !- Maximum Dry-Bulb Temperature {C}
  0,                                      !- Daily Dry-Bulb Temperature Range {deltaC}
  -16.3,                                  !- Humidity Indicating Conditions at Maximum Dry-Bulb
  98769,                                  !- Barometric Pressure {Pa}
  5.1,                                    !- Wind Speed {m/s}
  270,                                    !- Wind Direction {deg}
  0,                                      !- Sky Clearness
  0,                                      !- Rain Indicator
  0,                                      !- Snow Indicator
  21,                                     !- Day of Month
  1,                                      !- Month
  WinterDesignDay,                        !- Day Type
  0,                                      !- Daylight Saving Time Indicator
  Wetbulb,                                !- Humidity Indicating Type
  ,                                       !- Humidity Indicating Day Schedule Name
  DefaultMultipliers,                     !- Dry-Bulb Temperature Range Modifier Type
  ,                                       !- Dry-Bulb Temperature Range Modifier Schedule Name
  ASHRAEClearSky;                         !- Solar Model Indicator

OS:ClimateZones,
  {640881c6-72dc-4947-a374-57c41d3a8c79}, !- Handle
  ,                                       !- Active Institution
  ,                                       !- Active Year
  ASHRAE,                                 !- Climate Zone Institution Name 1
  ANSI/ASHRAE Standard 169,               !- Climate Zone Document Name 1
  2006,                                   !- Climate Zone Document Year 1
  6A;                                     !- Climate Zone Value 1

OS:RunPeriodControl:DaylightSavingTime,
  {511bdee0-d2c8-4f35-92ef-baf07baed28b}, !- Handle
  2nd Sunday in March,                    !- Start Date
  1st Sunday in November;                 !- End Date

OS:People:Definition,
  {78c15c25-7a99-4816-96a6-0d5b50b42a7b}, !- Handle
  Office WholeBuilding - Md Office People Definition, !- Name
  People/Area,                            !- Number of People Calculation Method
  ,                                       !- Number of People {people}
  0.0538195520835486,                     !- People per Space Floor Area {person/m2}
  ,                                       !- Space Floor Area per Person {m2/person}
  0.3,                                    !- Fraction Radiant
  ,                                       !- Sensible Heat Fraction
  ,                                       !- Carbon Dioxide Generation Rate {m3/s-W}
  Yes,                                    !- Enable ASHRAE 55 Comfort Warnings
  ZoneAveraged,                           !- Mean Radiant Temperature Calculation Type
  Fanger;                                 !- Thermal Comfort Model Type 1

OS:Schedule:Ruleset,
  {b94c0789-ca5c-4ebd-9cf4-66fdde781de0}, !- Handle
  Clothing Schedule,                      !- Name
  {6f2d8549-6099-4ce2-b32a-e8cdbe7c3f4d}, !- Schedule Type Limits Name
  {370f806c-4ffa-4ee4-b837-00dcd746e6cd}; !- Default Day Schedule Name

OS:Schedule:Day,
  {370f806c-4ffa-4ee4-b837-00dcd746e6cd}, !- Handle
  Clothing Schedule Default Winter Clothes, !- Name
  {6f2d8549-6099-4ce2-b32a-e8cdbe7c3f4d}, !- Schedule Type Limits Name
  ,                                       !- Interpolate to Timestep
  24,                                     !- Hour 1
  0,                                      !- Minute 1
  1;                                      !- Value Until Time 1

OS:Schedule:Rule,
  {12cff820-bc80-4a9d-8749-843a2b4d5ab5}, !- Handle
  Schedule Rule 1,                        !- Name
  {b94c0789-ca5c-4ebd-9cf4-66fdde781de0}, !- Schedule Ruleset Name
  0,                                      !- Rule Order
  {287cf0a9-ac49-4c62-bb6a-d7dda4a9f530}, !- Day Schedule Name
  ,                                       !- Apply Sunday
  ,                                       !- Apply Monday
  ,                                       !- Apply Tuesday
  ,                                       !- Apply Wednesday
  ,                                       !- Apply Thursday
  ,                                       !- Apply Friday
  ,                                       !- Apply Saturday
  ,                                       !- Apply Holiday
  DateRange,                              !- Date Specification Type
  5,                                      !- Start Month
  1,                                      !- Start Day
  9,                                      !- End Month
  30;                                     !- End Day

OS:Schedule:Day,
  {287cf0a9-ac49-4c62-bb6a-d7dda4a9f530}, !- Handle
  Clothing Schedule Summer Clothes,       !- Name
  {6f2d8549-6099-4ce2-b32a-e8cdbe7c3f4d}, !- Schedule Type Limits Name
  ,                                       !- Interpolate to Timestep
  24,                                     !- Hour 1
  0,                                      !- Minute 1
  0.5;                                    !- Value Until Time 1

OS:ScheduleTypeLimits,
  {6f2d8549-6099-4ce2-b32a-e8cdbe7c3f4d}, !- Handle
  ClothingInsulation,                     !- Name
  0,                                      !- Lower Limit Value
  ,                                       !- Upper Limit Value
  Continuous,                             !- Numeric Type
  ClothingInsulation;                     !- Unit Type

OS:Schedule:Ruleset,
  {b1e3d949-36db-4cc4-8a13-f92251c296e5}, !- Handle
  Air Velocity Schedule,                  !- Name
  {b01c72cb-d3d3-4300-ad94-84bc96082ebe}, !- Schedule Type Limits Name
  {7193a9f2-4c3a-4a05-8830-8e39bb4e9062}; !- Default Day Schedule Name

OS:Schedule:Day,
  {7193a9f2-4c3a-4a05-8830-8e39bb4e9062}, !- Handle
  Air Velocity Schedule Default,          !- Name
  {b01c72cb-d3d3-4300-ad94-84bc96082ebe}, !- Schedule Type Limits Name
  ,                                       !- Interpolate to Timestep
  24,                                     !- Hour 1
  0,                                      !- Minute 1
  0.2;                                    !- Value Until Time 1

OS:ScheduleTypeLimits,
  {b01c72cb-d3d3-4300-ad94-84bc96082ebe}, !- Handle
  Velocity,                               !- Name
  0,                                      !- Lower Limit Value
  ,                                       !- Upper Limit Value
  Continuous,                             !- Numeric Type
  Velocity;                               !- Unit Type

OS:Schedule:Ruleset,
  {22095f39-4b30-41a1-ac64-d233184cd2f5}, !- Handle
  Work Efficiency Schedule,               !- Name
  {dc0e1097-f78e-4f31-bc3f-da8a5deb5cda}, !- Schedule Type Limits Name
  {252a025a-cf4e-4261-b746-0edff801219e}; !- Default Day Schedule Name

OS:Schedule:Day,
  {252a025a-cf4e-4261-b746-0edff801219e}, !- Handle
  Work Efficiency Schedule Default,       !- Name
  {dc0e1097-f78e-4f31-bc3f-da8a5deb5cda}, !- Schedule Type Limits Name
  ,                                       !- Interpolate to Timestep
  24,                                     !- Hour 1
  0,                                      !- Minute 1
  0;                                      !- Value Until Time 1

OS:ScheduleTypeLimits,
  {dc0e1097-f78e-4f31-bc3f-da8a5deb5cda}, !- Handle
  Fractional,                             !- Name
  0,                                      !- Lower Limit Value
  1,                                      !- Upper Limit Value
  Continuous;                             !- Numeric Type

OS:Lights:Definition,
  {8dd350a4-077d-4cee-80fd-2e92acfac555}, !- Handle
  Office WholeBuilding - Md Office Lights Definition, !- Name
  Watts/Area,                             !- Design Level Calculation Method
  ,                                       !- Lighting Level {W}
  8.82640654170197,                       !- Watts per Space Floor Area {W/m2}
  ,                                       !- Watts per Person {W/person}
  0.7,                                    !- Fraction Radiant
  0.2;                                    !- Fraction Visible

OS:AdditionalProperties,
  {8d04f95d-d2d0-4abb-984a-7b66b9fa627d}, !- Handle
  {8dd350a4-077d-4cee-80fd-2e92acfac555}, !- Object Name
  lpd_fraction_linear_fluorescent,        !- Feature Name 1
  Double,                                 !- Feature Data Type 1
  1;                                      !- Feature Value 1

OS:ElectricEquipment:Definition,
  {93dc3cd6-ac27-4309-8e7e-94f39dc9fefb}, !- Handle
  Office WholeBuilding - Md Office Elec Equip Definition, !- Name
  Watts/Area,                             !- Design Level Calculation Method
  ,                                       !- Design Level {W}
  8.07293281253229,                       !- Watts per Space Floor Area {W/m2}
  ,                                       !- Watts per Person {W/person}
  ,                                       !- Fraction Latent
  0.5;                                    !- Fraction Radiant

OS:DesignSpecification:OutdoorAir,
  {d208e174-7398-49f8-a1fd-2d8f5b9f464a}, !- Handle
  Office WholeBuilding - Md Office Ventilation, !- Name
  Sum,                                    !- Outdoor Air Method
  ,                                       !- Outdoor Air Flow per Person {m3/s-person}
  0.0004318,                              !- Outdoor Air Flow per Floor Area {m3/s-m2}
  ,                                       !- Outdoor Air Flow Rate {m3/s}
  ,                                       !- Outdoor Air Flow Air Changes per Hour {1/hr}
  ;                                       !- Outdoor Air Flow Rate Fraction Schedule Name

OS:DefaultScheduleSet,
  {9cd02eef-f721-44f1-b54f-b2c3a9fc4045}, !- Handle
  Office WholeBuilding - Md Office Schedule Set, !- Name
  ,                                       !- Hours of Operation Schedule Name
  {3c15d9d3-3876-439e-8329-197385039852}, !- Number of People Schedule Name
  {66595b43-7009-47ca-911f-5f9ae43bf6c3}, !- People Activity Level Schedule Name
  {f2c7f647-5877-4a96-b504-d5cc973bcf93}, !- Lighting Schedule Name
  {96708d0f-7fcf-4adf-baa2-939d68865280}, !- Electric Equipment Schedule Name
  ,                                       !- Gas Equipment Schedule Name
  ,                                       !- Hot Water Equipment Schedule Name
  {5598937b-2908-4ac7-b0cf-f9ce00a74429}, !- Infiltration Schedule Name
  ,                                       !- Steam Equipment Schedule Name
  ;                                       !- Other Equipment Schedule Name

OS:Schedule:Ruleset,
  {3c15d9d3-3876-439e-8329-197385039852}, !- Handle
  OfficeMedium BLDG_OCC_SCH,              !- Name
  {dc0e1097-f78e-4f31-bc3f-da8a5deb5cda}, !- Schedule Type Limits Name
  {a34ae5b2-9618-4058-9b69-0ff4998d7d90}, !- Default Day Schedule Name
  {4fa5befa-81c2-43ee-9835-383edcff7b55}, !- Summer Design Day Schedule Name
  {b8684d62-4c1f-4c26-b999-a4e93372c6f0}; !- Winter Design Day Schedule Name

OS:Schedule:Day,
  {a34ae5b2-9618-4058-9b69-0ff4998d7d90}, !- Handle
  OfficeMedium BLDG_OCC_SCH Default,      !- Name
  {dc0e1097-f78e-4f31-bc3f-da8a5deb5cda}, !- Schedule Type Limits Name
  ,                                       !- Interpolate to Timestep
  6,                                      !- Hour 1
  0,                                      !- Minute 1
  0,                                      !- Value Until Time 1
  18,                                     !- Hour 2
  0,                                      !- Minute 2
  0.05,                                   !- Value Until Time 2
  24,                                     !- Hour 3
  0,                                      !- Minute 3
  0;                                      !- Value Until Time 3

OS:Schedule:Rule,
  {1f36625a-486d-42f9-a8af-ae4f1c9fdc94}, !- Handle
  Schedule Rule 2,                        !- Name
  {3c15d9d3-3876-439e-8329-197385039852}, !- Schedule Ruleset Name
  1,                                      !- Rule Order
  {74dcac2e-e943-4cf8-8653-ed4ade1529e0}, !- Day Schedule Name
  ,                                       !- Apply Sunday
  ,                                       !- Apply Monday
  ,                                       !- Apply Tuesday
  ,                                       !- Apply Wednesday
  ,                                       !- Apply Thursday
  ,                                       !- Apply Friday
  Yes,                                    !- Apply Saturday
  ,                                       !- Apply Holiday
  DateRange,                              !- Date Specification Type
  1,                                      !- Start Month
  1,                                      !- Start Day
  12,                                     !- End Month
  31;                                     !- End Day

OS:Schedule:Day,
  {74dcac2e-e943-4cf8-8653-ed4ade1529e0}, !- Handle
  OfficeMedium BLDG_OCC_SCH Sat Day,      !- Name
  {dc0e1097-f78e-4f31-bc3f-da8a5deb5cda}, !- Schedule Type Limits Name
  ,                                       !- Interpolate to Timestep
  6,                                      !- Hour 1
  0,                                      !- Minute 1
  0,                                      !- Value Until Time 1
  8,                                      !- Hour 2
  0,                                      !- Minute 2
  0.1,                                    !- Value Until Time 2
  12,                                     !- Hour 3
  0,                                      !- Minute 3
  0.3,                                    !- Value Until Time 3
  17,                                     !- Hour 4
  0,                                      !- Minute 4
  0.1,                                    !- Value Until Time 4
  19,                                     !- Hour 5
  0,                                      !- Minute 5
  0.05,                                   !- Value Until Time 5
  24,                                     !- Hour 6
  0,                                      !- Minute 6
  0;                                      !- Value Until Time 6

OS:Schedule:Day,
  {4fa5befa-81c2-43ee-9835-383edcff7b55}, !- Handle
  OfficeMedium BLDG_OCC_SCH Summer Design Day, !- Name
  {dc0e1097-f78e-4f31-bc3f-da8a5deb5cda}, !- Schedule Type Limits Name
  ,                                       !- Interpolate to Timestep
  6,                                      !- Hour 1
  0,                                      !- Minute 1
  0,                                      !- Value Until Time 1
  22,                                     !- Hour 2
  0,                                      !- Minute 2
  1,                                      !- Value Until Time 2
  24,                                     !- Hour 3
  0,                                      !- Minute 3
  0.05;                                   !- Value Until Time 3

OS:Schedule:Rule,
  {7cea28af-dd3f-4386-80a1-13fb3f76ab7b}, !- Handle
  Schedule Rule 3,                        !- Name
  {3c15d9d3-3876-439e-8329-197385039852}, !- Schedule Ruleset Name
  0,                                      !- Rule Order
  {62f502da-e8a7-48db-8eda-db03f05c7e19}, !- Day Schedule Name
  ,                                       !- Apply Sunday
  Yes,                                    !- Apply Monday
  Yes,                                    !- Apply Tuesday
  Yes,                                    !- Apply Wednesday
  Yes,                                    !- Apply Thursday
  Yes,                                    !- Apply Friday
  ,                                       !- Apply Saturday
  ,                                       !- Apply Holiday
  DateRange,                              !- Date Specification Type
  1,                                      !- Start Month
  1,                                      !- Start Day
  12,                                     !- End Month
  31;                                     !- End Day

OS:Schedule:Day,
  {62f502da-e8a7-48db-8eda-db03f05c7e19}, !- Handle
  OfficeMedium BLDG_OCC_SCH Wkdy Day,     !- Name
  {dc0e1097-f78e-4f31-bc3f-da8a5deb5cda}, !- Schedule Type Limits Name
  ,                                       !- Interpolate to Timestep
  6,                                      !- Hour 1
  0,                                      !- Minute 1
  0,                                      !- Value Until Time 1
  7,                                      !- Hour 2
  0,                                      !- Minute 2
  0.1,                                    !- Value Until Time 2
  8,                                      !- Hour 3
  0,                                      !- Minute 3
  0.2,                                    !- Value Until Time 3
  12,                                     !- Hour 4
  0,                                      !- Minute 4
  0.95,                                   !- Value Until Time 4
  13,                                     !- Hour 5
  0,                                      !- Minute 5
  0.5,                                    !- Value Until Time 5
  17,                                     !- Hour 6
  0,                                      !- Minute 6
  0.95,                                   !- Value Until Time 6
  18,                                     !- Hour 7
  0,                                      !- Minute 7
  0.3,                                    !- Value Until Time 7
  22,                                     !- Hour 8
  0,                                      !- Minute 8
  0.1,                                    !- Value Until Time 8
  24,                                     !- Hour 9
  0,                                      !- Minute 9
  0.05;                                   !- Value Until Time 9

OS:Schedule:Day,
  {b8684d62-4c1f-4c26-b999-a4e93372c6f0}, !- Handle
  OfficeMedium BLDG_OCC_SCH Winter Design Day, !- Name
  {dc0e1097-f78e-4f31-bc3f-da8a5deb5cda}, !- Schedule Type Limits Name
  ,                                       !- Interpolate to Timestep
  24,                                     !- Hour 1
  0,                                      !- Minute 1
  0;                                      !- Value Until Time 1

OS:Schedule:Ruleset,
  {66595b43-7009-47ca-911f-5f9ae43bf6c3}, !- Handle
  OfficeMedium ACTIVITY_SCH,              !- Name
  {fb003932-d393-4317-9ebf-e369e2201b56}, !- Schedule Type Limits Name
  {68571b7b-7005-41ed-8ceb-4a1216309dc7}, !- Default Day Schedule Name
  {3db769d1-65b5-4923-a6ca-e91f5192cd6a}, !- Summer Design Day Schedule Name
  {d7811a18-4158-4602-9756-73201f899186}; !- Winter Design Day Schedule Name

OS:Schedule:Day,
  {68571b7b-7005-41ed-8ceb-4a1216309dc7}, !- Handle
  OfficeMedium ACTIVITY_SCH Default,      !- Name
  {fb003932-d393-4317-9ebf-e369e2201b56}, !- Schedule Type Limits Name
  ,                                       !- Interpolate to Timestep
  24,                                     !- Hour 1
  0,                                      !- Minute 1
  120;                                    !- Value Until Time 1

OS:Schedule:Day,
  {d7811a18-4158-4602-9756-73201f899186}, !- Handle
  OfficeMedium ACTIVITY_SCH Winter Design Day, !- Name
  {fb003932-d393-4317-9ebf-e369e2201b56}, !- Schedule Type Limits Name
  ,                                       !- Interpolate to Timestep
  24,                                     !- Hour 1
  0,                                      !- Minute 1
  120;                                    !- Value Until Time 1

OS:Schedule:Day,
  {3db769d1-65b5-4923-a6ca-e91f5192cd6a}, !- Handle
  OfficeMedium ACTIVITY_SCH Summer Design Day, !- Name
  {fb003932-d393-4317-9ebf-e369e2201b56}, !- Schedule Type Limits Name
  ,                                       !- Interpolate to Timestep
  24,                                     !- Hour 1
  0,                                      !- Minute 1
  120;                                    !- Value Until Time 1

OS:ScheduleTypeLimits,
  {fb003932-d393-4317-9ebf-e369e2201b56}, !- Handle
  ActivityLevel,                          !- Name
  0,                                      !- Lower Limit Value
  ,                                       !- Upper Limit Value
  Continuous,                             !- Numeric Type
  ActivityLevel;                          !- Unit Type

OS:Schedule:Ruleset,
  {f2c7f647-5877-4a96-b504-d5cc973bcf93}, !- Handle
  OfficeMedium BLDG_LIGHT_SCH_2013,       !- Name
  {dc0e1097-f78e-4f31-bc3f-da8a5deb5cda}, !- Schedule Type Limits Name
  {5f4b2ace-94b1-4cfc-a908-c3a56c381bc8}, !- Default Day Schedule Name
  {3a6e582e-e650-452b-81a4-02d61f1ca3d2}, !- Summer Design Day Schedule Name
  {2fa78ed7-bb36-47bd-99b0-9d1aeb11dfc1}; !- Winter Design Day Schedule Name

OS:Schedule:Day,
  {5f4b2ace-94b1-4cfc-a908-c3a56c381bc8}, !- Handle
  Schedule Day 5,                         !- Name
  {dc0e1097-f78e-4f31-bc3f-da8a5deb5cda}, !- Schedule Type Limits Name
  ,                                       !- Interpolate to Timestep
  24,                                     !- Hour 1
  0,                                      !- Minute 1
  0;                                      !- Value Until Time 1

OS:Schedule:Rule,
  {666588c2-adb8-4170-982b-c137d1a9c264}, !- Handle
  Schedule Rule 4,                        !- Name
  {f2c7f647-5877-4a96-b504-d5cc973bcf93}, !- Schedule Ruleset Name
  2,                                      !- Rule Order
  {797da07f-5657-4402-a970-564b6f0f7d8a}, !- Day Schedule Name
  ,                                       !- Apply Sunday
  ,                                       !- Apply Monday