
OS:Version,
  {fa7fe7d7-b726-420b-bb3a-0a65daaa6dce}, !- Handle
  2.8.1;                                  !- Version Identifier

OS:Facility,
  {e048539c-b64e-49b3-bd73-d8b6f0b03fc5}; !- Handle

OS:Site,
  {3a7c1e78-2ecf-4963-958d-81144464be88}, !- Handle
  Buffalo Niagara Intl Ap_NY_USA,         !- Name
  42.8177446702697,                       !- Latitude {deg}
  -78.852465967195,                       !- Longitude {deg}
  -5,                                     !- Time Zone {hr}
  215,                                    !- Elevation {m}
  City;                                   !- Terrain

OS:SimulationControl,
  {6bfa8a32-68a1-49de-b581-17ccfa8d2360}, !- Handle
  ,                                       !- Do Zone Sizing Calculation
  ,                                       !- Do System Sizing Calculation
  ,                                       !- Do Plant Sizing Calculation
  Yes,                                    !- Run Simulation for Sizing Periods
  No;                                     !- Run Simulation for Weather File Run Periods

OS:Sizing:Parameters,
  {2bee6930-d8b6-4192-8a35-f3e8205b7530}, !- Handle
  1.25,                                   !- Heating Sizing Factor
  1.15;                                   !- Cooling Sizing Factor

OS:Timestep,
  {1f25c70e-158d-4697-a9f5-784bdf6c8c6a}, !- Handle
  1;                                      !- Number of Timesteps per Hour

OS:ShadowCalculation,
  {f4801094-685c-4a9a-9463-bb74e935e8d8}, !- Handle
  20,                                     !- Calculation Frequency
  15000;                                  !- Maximum Figures in Shadow Overlap Calculations

OS:HeatBalanceAlgorithm,
  {3f35917a-6743-4335-9c83-a030891de104}, !- Handle
  ConductionTransferFunction,             !- Algorithm
  200;                                    !- Surface Temperature Upper Limit {C}

OS:RunPeriod,
  {4d77b6b1-5d88-4f1f-9d6e-13a0aab23a43}, !- Handle
  Run Period 1,                           !- Name
  1,                                      !- Begin Month
  1,                                      !- Begin Day of Month
  12,                                     !- End Month
  31,                                     !- End Day of Month
  ,                                       !- Use Weather File Holidays and Special Days
  ,                                       !- Use Weather File Daylight Saving Period
  ,                                       !- Apply Weekend Holiday Rule
  ,                                       !- Use Weather File Rain Indicators
  ,                                       !- Use Weather File Snow Indicators
  ;                                       !- Number of Times Runperiod to be Repeated

OS:LifeCycleCost:Parameters,
  {2b281bbb-4765-4225-afd3-427eb7cc0a5c}, !- Handle
  ,                                       !- Analysis Type
  ,                                       !- Discounting Convention
  ,                                       !- Inflation Approach
  ,                                       !- Real Discount Rate
  ,                                       !- Nominal Discount Rate
  ,                                       !- Inflation
  ,                                       !- Base Date Month
  ,                                       !- Base Date Year
  ,                                       !- Service Date Month
  ,                                       !- Service Date Year
  ;                                       !- Length of Study Period in Years

OS:YearDescription,
  {7ba70471-93b7-404c-87e5-759134bc2b21}, !- Handle
  2019,                                   !- Calendar Year
  ,                                       !- Day of Week for Start Day
  ;                                       !- Is Leap Year

OS:WeatherFile,
  {6539ce26-2e55-44bf-9692-be970d8aa166}, !- Handle
  Buffalo Niagara Intl Ap,                !- City
  NY,                                     !- State Province Region
  USA,                                    !- Country
  TMY3,                                   !- Data Source
  725280,                                 !- WMO Number
  42.93,                                  !- Latitude {deg}
  -78.73,                                 !- Longitude {deg}
  -5,                                     !- Time Zone {hr}
  215,                                    !- Elevation {m}
  file:///C:/urbanopt-example-reopt-project/run/baseline_scenario/10/006_create_typical_building_from_model/SR1/in.epw, !- Url
  6B50E0FF;                               !- Checksum

OS:Site:WaterMainsTemperature,
  {c493f46d-a7be-4410-8806-1fb063796ee2}, !- Handle
  Correlation,                            !- Calculation Method
  ,                                       !- Temperature Schedule Name
  8.96666666666667,                       !- Annual Average Outdoor Air Temperature {C}
  26.2;                                   !- Maximum Difference In Monthly Average Outdoor Air Temperatures {deltaC}

OS:SizingPeriod:DesignDay,
  {4163ca4e-72dc-4ce0-96c8-03e56594008e}, !- Handle
  Buffalo Niagara Intl Ap Ann Clg .4% Condns DB=>MWB 1, !- Name
  30.3,                                   !- Maximum Dry-Bulb Temperature {C}
  9.3,                                    !- Daily Dry-Bulb Temperature Range {deltaC}
  21.8,                                   !- Humidity Indicating Conditions at Maximum Dry-Bulb
  98769,                                  !- Barometric Pressure {Pa}
  5.7,                                    !- Wind Speed {m/s}
  240,                                    !- Wind Direction {deg}
  0,                                      !- Sky Clearness
  0,                                      !- Rain Indicator
  0,                                      !- Snow Indicator
  21,                                     !- Day of Month
  7,                                      !- Month
  SummerDesignDay,                        !- Day Type
  0,                                      !- Daylight Saving Time Indicator
  Wetbulb,                                !- Humidity Indicating Type
  ,                                       !- Humidity Indicating Day Schedule Name
  DefaultMultipliers,                     !- Dry-Bulb Temperature Range Modifier Type
  ,                                       !- Dry-Bulb Temperature Range Modifier Schedule Name
  ASHRAETau,                              !- Solar Model Indicator
  ,                                       !- Beam Solar Day Schedule Name
  ,                                       !- Diffuse Solar Day Schedule Name
  0.462,                                  !- ASHRAE Taub {dimensionless}
  2.001;                                  !- ASHRAE Taud {dimensionless}

OS:SizingPeriod:DesignDay,
  {33642572-bd50-48ad-9221-5a1e91a51ee3}, !- Handle
  Buffalo Niagara Intl Ap Ann Clg .4% Condns WB=>MDB 1, !- Name
  27.8,                                   !- Maximum Dry-Bulb Temperature {C}
  9.3,                                    !- Daily Dry-Bulb Temperature Range {deltaC}
  23.8,                                   !- Humidity Indicating Conditions at Maximum Dry-Bulb
  98769,                                  !- Barometric Pressure {Pa}
  5.7,                                    !- Wind Speed {m/s}
  240,                                    !- Wind Direction {deg}
  0,                                      !- Sky Clearness
  0,                                      !- Rain Indicator
  0,                                      !- Snow Indicator
  21,                                     !- Day of Month
  7,                                      !- Month
  SummerDesignDay,                        !- Day Type
  0,                                      !- Daylight Saving Time Indicator
  Wetbulb,                                !- Humidity Indicating Type
  ,                                       !- Humidity Indicating Day Schedule Name
  DefaultMultipliers,                     !- Dry-Bulb Temperature Range Modifier Type
  ,                                       !- Dry-Bulb Temperature Range Modifier Schedule Name
  ASHRAETau,                              !- Solar Model Indicator
  ,                                       !- Beam Solar Day Schedule Name
  ,                                       !- Diffuse Solar Day Schedule Name
  0.462,                                  !- ASHRAE Taub {dimensionless}
  2.001;                                  !- ASHRAE Taud {dimensionless}

OS:SizingPeriod:DesignDay,
  {1fad8d19-2545-4f98-aa2f-3de3279d6636}, !- Handle
  Buffalo Niagara Intl Ap Ann Htg 99.6% Condns DB 1, !- Name
  -16.3,                                  !- Maximum Dry-Bulb Temperature {C}
  0,                                      !- Daily Dry-Bulb Temperature Range {deltaC}
  -16.3,                                  !- Humidity Indicating Conditions at Maximum Dry-Bulb
  98769,                                  !- Barometric Pressure {Pa}
  5.1,                                    !- Wind Speed {m/s}
  270,                                    !- Wind Direction {deg}
  0,                                      !- Sky Clearness
  0,                                      !- Rain Indicator
  0,                                      !- Snow Indicator
  21,                                     !- Day of Month
  1,                                      !- Month
  WinterDesignDay,                        !- Day Type
  0,                                      !- Daylight Saving Time Indicator
  Wetbulb,                                !- Humidity Indicating Type
  ,                                       !- Humidity Indicating Day Schedule Name
  DefaultMultipliers,                     !- Dry-Bulb Temperature Range Modifier Type
  ,                                       !- Dry-Bulb Temperature Range Modifier Schedule Name
  ASHRAEClearSky;                         !- Solar Model Indicator

OS:ClimateZones,
  {c109a585-d49b-4dba-b5b4-a4c46bb508f8}, !- Handle
  ,                                       !- Active Institution
  ,                                       !- Active Year
  ASHRAE,                                 !- Climate Zone Institution Name 1
  ANSI/ASHRAE Standard 169,               !- Climate Zone Document Name 1
  2006,                                   !- Climate Zone Document Year 1
  6A;                                     !- Climate Zone Value 1

OS:RunPeriodControl:DaylightSavingTime,
  {bc2c5b3f-f038-4234-a2db-a8b45efb1b92}, !- Handle
  2nd Sunday in March,                    !- Start Date
  1st Sunday in November;                 !- End Date

OS:Lights:Definition,
  {143d1899-6a74-476f-8442-65baf9173e3f}, !- Handle
  LargeHotel Storage Lights Definition,   !- Name
  Watts/Area,                             !- Design Level Calculation Method
  ,                                       !- Lighting Level {W}
  6.78126356252712,                       !- Watts per Space Floor Area {W/m2}
  ,                                       !- Watts per Person {W/person}
  0.7,                                    !- Fraction Radiant
  0.2;                                    !- Fraction Visible

OS:AdditionalProperties,
  {33cdadcf-8785-4119-a6e7-9e0845f723d8}, !- Handle
  {143d1899-6a74-476f-8442-65baf9173e3f}, !- Object Name
  lpd_fraction_linear_fluorescent,        !- Feature Name 1
  Double,                                 !- Feature Data Type 1
  1;                                      !- Feature Value 1

OS:ElectricEquipment:Definition,
  {a6379e56-e99c-464c-80c7-9e01e6daa339}, !- Handle
  LargeHotel Storage Elec Equip Definition, !- Name
  Watts/Area,                             !- Design Level Calculation Method
  ,                                       !- Design Level {W}
  2.69097760417743,                       !- Watts per Space Floor Area {W/m2}
  ,                                       !- Watts per Person {W/person}
  ,                                       !- Fraction Latent
  0.5;                                    !- Fraction Radiant

OS:DesignSpecification:OutdoorAir,
  {7af68faa-e574-41f8-b806-a61504884348}, !- Handle
  LargeHotel Storage Ventilation,         !- Name
  Sum,                                    !- Outdoor Air Method
  ,                                       !- Outdoor Air Flow per Person {m3/s-person}
  0.0006096,                              !- Outdoor Air Flow per Floor Area {m3/s-m2}
  ,                                       !- Outdoor Air Flow Rate {m3/s}
  ,                                       !- Outdoor Air Flow Air Changes per Hour {1/hr}
  ;                                       !- Outdoor Air Flow Rate Fraction Schedule Name

OS:DefaultScheduleSet,
  {9f1fb79a-4643-402a-ac61-e93e6bdafd2e}, !- Handle
  LargeHotel Storage Schedule Set,        !- Name
  ,                                       !- Hours of Operation Schedule Name
  {3accf790-2b97-4a3d-9350-36e66f79d397}, !- Number of People Schedule Name
  {b057f471-abd5-4ea2-8cea-a16081e47363}, !- People Activity Level Schedule Name
  {749f67e7-e522-4738-94e2-f8ee47272eca}, !- Lighting Schedule Name
  {e42dd50c-2443-40d0-8093-b9b5e23c84c1}, !- Electric Equipment Schedule Name
  ,                                       !- Gas Equipment Schedule Name
  ,                                       !- Hot Water Equipment Schedule Name
  {623ff4a3-3a07-400a-9db6-de388767800b}, !- Infiltration Schedule Name
  ,                                       !- Steam Equipment Schedule Name
  ;                                       !- Other Equipment Schedule Name

OS:Schedule:Ruleset,
  {3accf790-2b97-4a3d-9350-36e66f79d397}, !- Handle
  HotelLarge BLDG_OCC_SCH,                !- Name
  {f9247a2e-b428-44e7-bebe-9f777b8c4622}, !- Schedule Type Limits Name
  {e342bab3-8dc3-4d93-939b-991e083cffa9}, !- Default Day Schedule Name
  {a6d14088-3347-46a9-b987-51e0dcd51145}, !- Summer Design Day Schedule Name
  {7fefc920-a34a-4da5-8e9c-5ccbfc518541}; !- Winter Design Day Schedule Name

OS:Schedule:Day,
  {e342bab3-8dc3-4d93-939b-991e083cffa9}, !- Handle
  HotelLarge BLDG_OCC_SCH Default,        !- Name
  {f9247a2e-b428-44e7-bebe-9f777b8c4622}, !- Schedule Type Limits Name
  ,                                       !- Interpolate to Timestep
  8,                                      !- Hour 1
  0,                                      !- Minute 1
  0.7,                                    !- Value Until Time 1
  11,                                     !- Hour 2
  0,                                      !- Minute 2
  0.5,                                    !- Value Until Time 2
  13,                                     !- Hour 3
  0,                                      !- Minute 3
  0.3,                                    !- Value Until Time 3
  16,                                     !- Hour 4
  0,                                      !- Minute 4
  0.2,                                    !- Value Until Time 4
  17,                                     !- Hour 5
  0,                                      !- Minute 5
  0.3,                                    !- Value Until Time 5
  19,                                     !- Hour 6
  0,                                      !- Minute 6
  0.4,                                    !- Value Until Time 6
  21,                                     !- Hour 7
  0,                                      !- Minute 7
  0.6,                                    !- Value Until Time 7
  24,                                     !- Hour 8
  0,                                      !- Minute 8
  0.8;                                    !- Value Until Time 8

OS:Schedule:Rule,
  {c258f38a-5e6b-490a-b98c-9e85bd805c78}, !- Handle
  Schedule Rule 1,                        !- Name
  {3accf790-2b97-4a3d-9350-36e66f79d397}, !- Schedule Ruleset Name
  1,                                      !- Rule Order
  {24f9e9b4-81a9-4fc7-b284-7041f1b40f5a}, !- Day Schedule Name
  ,                                       !- Apply Sunday
  ,                                       !- Apply Monday
  ,                                       !- Apply Tuesday
  ,                                       !- Apply Wednesday
  ,                                       !- Apply Thursday
  ,                                       !- Apply Friday
  Yes,                                    !- Apply Saturday
  ,                                       !- Apply Holiday
  DateRange,                              !- Date Specification Type
  1,                                      !- Start Month
  1,                                      !- Start Day
  12,                                     !- End Month
  31;                                     !- End Day

OS:Schedule:Day,
  {24f9e9b4-81a9-4fc7-b284-7041f1b40f5a}, !- Handle
  HotelLarge BLDG_OCC_SCH Sat Day,        !- Name
  {f9247a2e-b428-44e7-bebe-9f777b8c4622}, !- Schedule Type Limits Name
  ,                                       !- Interpolate to Timestep
  6,                                      !- Hour 1
  0,                                      !- Minute 1
  0.9,                                    !- Value Until Time 1
  7,                                      !- Hour 2
  0,                                      !- Minute 2
  0.7,                                    !- Value Until Time 2
  9,                                      !- Hour 3
  0,                                      !- Minute 3
  0.5,                                    !- Value Until Time 3
  17,                                     !- Hour 4
  0,                                      !- Minute 4
  0.3,                                    !- Value Until Time 4
  18,                                     !- Hour 5
  0,                                      !- Minute 5
  0.5,                                    !- Value Until Time 5
  21,                                     !- Hour 6
  0,                                      !- Minute 6
  0.6,                                    !- Value Until Time 6
  24,                                     !- Hour 7
  0,                                      !- Minute 7
  0.7;                                    !- Value Until Time 7

OS:Schedule:Day,
  {a6d14088-3347-46a9-b987-51e0dcd51145}, !- Handle
  HotelLarge BLDG_OCC_SCH Summer Design Day, !- Name
  {f9247a2e-b428-44e7-bebe-9f777b8c4622}, !- Schedule Type Limits Name
  ,                                       !- Interpolate to Timestep
  24,                                     !- Hour 1
  0,                                      !- Minute 1
  1;                                      !- Value Until Time 1

OS:Schedule:Rule,
  {0c58dc04-04fd-4c7d-82c0-8d12ec68703a}, !- Handle
  Schedule Rule 2,                        !- Name
  {3accf790-2b97-4a3d-9350-36e66f79d397}, !- Schedule Ruleset Name
  0,                                      !- Rule Order
  {d57abc29-ca16-4bbb-8874-40df89e4e4c0}, !- Day Schedule Name
  ,                                       !- Apply Sunday
  Yes,                                    !- Apply Monday
  Yes,                                    !- Apply Tuesday
  Yes,                                    !- Apply Wednesday
  Yes,                                    !- Apply Thursday
  Yes,                                    !- Apply Friday
  ,                                       !- Apply Saturday
  ,                                       !- Apply Holiday
  DateRange,                              !- Date Specification Type
  1,                                      !- Start Month
  1,                                      !- Start Day
  12,                                     !- End Month
  31;                                     !- End Day

OS:Schedule:Day,
  {d57abc29-ca16-4bbb-8874-40df89e4e4c0}, !- Handle
  HotelLarge BLDG_OCC_SCH Wkdy Day,       !- Name
  {f9247a2e-b428-44e7-bebe-9f777b8c4622}, !- Schedule Type Limits Name
  ,                                       !- Interpolate to Timestep
  6,                                      !- Hour 1
  0,                                      !- Minute 1
  0.9,                                    !- Value Until Time 1
  7,                                      !- Hour 2
  0,                                      !- Minute 2
  0.7,                                    !- Value Until Time 2
  9,                                      !- Hour 3
  0,                                      !- Minute 3
  0.4,                                    !- Value Until Time 3
  15,                                     !- Hour 4
  0,                                      !- Minute 4
  0.2,                                    !- Value Until Time 4
  16,                                     !- Hour 5
  0,                                      !- Minute 5
  0.3,                                    !- Value Until Time 5
  19,                                     !- Hour 6
  0,                                      !- Minute 6
  0.5,                                    !- Value Until Time 6
  21,                                     !- Hour 7
  0,                                      !- Minute 7
  0.7,                                    !- Value Until Time 7
  22,                                     !- Hour 8
  0,                                      !- Minute 8
  0.8,                                    !- Value Until Time 8
  24,                                     !- Hour 9
  0,                                      !- Minute 9
  0.9;                                    !- Value Until Time 9

OS:Schedule:Day,
  {7fefc920-a34a-4da5-8e9c-5ccbfc518541}, !- Handle
  HotelLarge BLDG_OCC_SCH Winter Design Day, !- Name
  {f9247a2e-b428-44e7-bebe-9f777b8c4622}, !- Schedule Type Limits Name
  ,                                       !- Interpolate to Timestep
  24,                                     !- Hour 1
  0,                                      !- Minute 1
  0;                                      !- Value Until Time 1

OS:ScheduleTypeLimits,
  {f9247a2e-b428-44e7-bebe-9f777b8c4622}, !- Handle
  Fractional,                             !- Name
  0,                                      !- Lower Limit Value
  1,                                      !- Upper Limit Value
  Continuous;                             !- Numeric Type

OS:Schedule:Ruleset,
  {b057f471-abd5-4ea2-8cea-a16081e47363}, !- Handle
  HotelLarge ACTIVITY_SCH,                !- Name
  {0e64e2bc-0828-45bf-bbdb-ed32a4656a8c}, !- Schedule Type Limits Name
  {59c110ca-380f-488a-8bb1-4e61e61553e8}, !- Default Day Schedule Name
  {66c5cbb6-aa23-46b4-8cd1-8ff1b534d9c3}, !- Summer Design Day Schedule Name
  {c6e0323a-9f2a-4947-aeb1-56b2f0b091bb}; !- Winter Design Day Schedule Name

OS:Schedule:Day,
  {59c110ca-380f-488a-8bb1-4e61e61553e8}, !- Handle
  HotelLarge ACTIVITY_SCH Default,        !- Name
  {0e64e2bc-0828-45bf-bbdb-ed32a4656a8c}, !- Schedule Type Limits Name
  ,                                       !- Interpolate to Timestep
  24,                                     !- Hour 1
  0,                                      !- Minute 1
  120;                                    !- Value Until Time 1

OS:Schedule:Day,
  {c6e0323a-9f2a-4947-aeb1-56b2f0b091bb}, !- Handle
  HotelLarge ACTIVITY_SCH Winter Design Day, !- Name
  {0e64e2bc-0828-45bf-bbdb-ed32a4656a8c}, !- Schedule Type Limits Name
  ,                                       !- Interpolate to Timestep
  24,                                     !- Hour 1
  0,                                      !- Minute 1
  120;                                    !- Value Until Time 1

OS:Schedule:Day,
  {66c5cbb6-aa23-46b4-8cd1-8ff1b534d9c3}, !- Handle
  HotelLarge ACTIVITY_SCH Summer Design Day, !- Name
  {0e64e2bc-0828-45bf-bbdb-ed32a4656a8c}, !- Schedule Type Limits Name
  ,                                       !- Interpolate to Timestep
  24,                                     !- Hour 1
  0,                                      !- Minute 1
  120;                                    !- Value Until Time 1

OS:ScheduleTypeLimits,
  {0e64e2bc-0828-45bf-bbdb-ed32a4656a8c}, !- Handle
  ActivityLevel,                          !- Name
  0,                                      !- Lower Limit Value
  ,                                       !- Upper Limit Value
  Continuous,                             !- Numeric Type
  ActivityLevel;                          !- Unit Type

OS:Schedule:Ruleset,
  {749f67e7-e522-4738-94e2-f8ee47272eca}, !- Handle
  HotelLarge BLDG_LIGHT_STORAGE_SCH_2013, !- Name
  {f9247a2e-b428-44e7-bebe-9f777b8c4622}, !- Schedule Type Limits Name
  {97efa76a-e85c-43e9-bcfa-6d96b4a95a13}, !- Default Day Schedule Name
  {e53154cf-a898-4953-9c00-d3f1190e9b1d}, !- Summer Design Day Schedule Name
  {8b582915-727f-45fc-962a-753651ad0a32}; !- Winter Design Day Schedule Name

OS:Schedule:Day,
  {97efa76a-e85c-43e9-bcfa-6d96b4a95a13}, !- Handle
  HotelLarge BLDG_LIGHT_STORAGE_SCH_2013 Default, !- Name
  {f9247a2e-b428-44e7-bebe-9f777b8c4622}, !- Schedule Type Limits Name
  ,                                       !- Interpolate to Timestep
  2,                                      !- Hour 1
  0,                                      !- Minute 1
  0.133494,                               !- Value Until Time 1
  6,                                      !- Hour 2
  0,                                      !- Minute 2
  0.088996,                               !- Value Until Time 2
  7,                                      !- Hour 3
  0,                                      !- Minute 3
  0.133494,                               !- Value Until Time 3
  9,                                      !- Hour 4
  0,                                      !- Minute 4
  0.177992,                               !- Value Until Time 4
  10,                                     !- Hour 5
  0,                                      !- Minute 5
  0.17565,                                !- Value Until Time 5
  13,                                     !- Hour 6
  0,                                      !- Minute 6
  0.133494,                               !- Value Until Time 6
  18,                                     !- Hour 7
  0,                                      !- Minute 7
  0.088996,                               !- Value Until Time 7
  19,                                     !- Hour 8
  0,                                      !- Minute 8
  0.22249,                                !- Value Until Time 8
  20,                                     !- Hour 9
  0,                                      !- Minute 9
  0.311486,                               !- Value Until Time 9
  21,                                     !- Hour 10
  0,                                      !- Minute 10
  0.355984,                               !- Value Until Time 10
  22,                                     !- Hour 11
  0,                                      !- Minute 11
  0.266988,                               !- Value Until Time 11
  23,                                     !- Hour 12
  0,                                      !- Minute 12
  0.22249,                                !- Value Until Time 12
  24,                                     !- Hour 13
  0,                                      !- Minute 13
  0.133494;                               !- Value Until Time 13

OS:Schedule:Rule,
  {f13b40bd-c904-4f6c-b25c-e2d69a656237}, !- Handle
  Schedule Rule 3,                        !- Name
  {749f67e7-e522-4738-94e2-f8ee47272eca}, !- Schedule Ruleset Name
  1,                                      !- Rule Order
  {87399649-d07a-419c-bfa9-f060fc3c47ea}, !- Day Schedule Name
  ,                                       !- Apply Sunday
  ,                                       !- Apply Monday
  ,                                       !- Apply Tuesday
  ,                                       !- Apply Wednesday
  ,                                       !- Apply Thursday
  ,                                       !- Apply Friday
  Yes,                                    !- Apply Saturday
  ,                                       !- Apply Holiday
  DateRange,                              !- Date Specification Type
  1,                                      !- Start Month
  1,                                      !- Start Day
  12,                                     !- End Month
  31;                                     !- End Day

OS:Schedule:Day,
  {87399649-d07a-419c-bfa9-f060fc3c47ea}, !- Handle
  HotelLarge BLDG_LIGHT_STORAGE_SCH_2013 Sat Day, !- Name
  {f9247a2e-b428-44e7-bebe-9f777b8c4622}, !- Schedule Type Limits Name
  ,                                       !- Interpolate to Timestep
  2,                                      !- Hour 1
  0,                                      !- Minute 1
  0.088996,                               !- Value Until Time 1
  6,                                      !- Hour 2
  0,                                      !- Minute 2
  0.044498,                               !- Value Until Time 2
  8,                                      !- Hour 3
  0,                                      !- Minute 3
  0.133494,                               !- Value Until Time 3
  10,                                     !- Hour 4
  0,                                      !- Minute 4
  0.177992,                               !- Value Until Time 4
  11,                                     !- Hour 5
  0,                                      !- Minute 5
  0.133494,                               !- Value Until Time 5
  18,                                     !- Hour 6
  0,                                      !- Minute 6
  0.111245,                               !- Value Until Time 6
  19,                                     !- Hour 7
  0,                                      !- Minute 7
  0.266988,                               !- Value Until Time 7
  22,                                     !- Hour 8
  0,                                      !- Minute 8
  0.311486,                               !- Value Until Time 8
  23,                                     !- Hour 9
  0,                                      !- Minute 9
  0.266988,                               !- Value Until Time 9
  24,                                     !- Hour 10
  0,                                      !- Minute 10