
OS:Version,
  {d21f7d07-6995-41e0-ab7e-30626e1ceb75}, !- Handle
  2.8.1;                                  !- Version Identifier

OS:Facility,
  {4e14905c-e7c4-4ad1-a7c0-123067778c0a}; !- Handle

OS:Site,
  {96189bc1-624d-4e66-b952-0052bbaaa4e9}, !- Handle
  Buffalo Niagara Intl Ap_NY_USA,         !- Name
  42.8132927350264,                       !- Latitude {deg}
  -78.8501565714965,                      !- Longitude {deg}
  -5,                                     !- Time Zone {hr}
  215,                                    !- Elevation {m}
  City;                                   !- Terrain

OS:SimulationControl,
  {178bf002-9f50-43ab-8478-556e5ffcae4a}, !- Handle
  ,                                       !- Do Zone Sizing Calculation
  ,                                       !- Do System Sizing Calculation
  ,                                       !- Do Plant Sizing Calculation
  No,                                     !- Run Simulation for Sizing Periods
  Yes;                                    !- Run Simulation for Weather File Run Periods

OS:Sizing:Parameters,
  {071c5c45-90c2-45e0-a241-712b604b05e3}, !- Handle
  1.25,                                   !- Heating Sizing Factor
  1.15;                                   !- Cooling Sizing Factor

OS:Timestep,
  {e4d949f8-87b3-4b05-8b1c-b22da5733b42}, !- Handle
  1;                                      !- Number of Timesteps per Hour

OS:ShadowCalculation,
  {f51c724a-e34d-412c-b966-29925b6151de}, !- Handle
  20,                                     !- Calculation Frequency
  15000;                                  !- Maximum Figures in Shadow Overlap Calculations

OS:HeatBalanceAlgorithm,
  {f40df0e1-7b46-4013-a75e-592d66341aba}, !- Handle
  ConductionTransferFunction,             !- Algorithm
  200;                                    !- Surface Temperature Upper Limit {C}

OS:RunPeriod,
  {b2dee9a2-736d-4aa8-9f5f-ce1e0fbb0243}, !- Handle
  Run Period 1,                           !- Name
  1,                                      !- Begin Month
  1,                                      !- Begin Day of Month
  12,                                     !- End Month
  31,                                     !- End Day of Month
  ,                                       !- Use Weather File Holidays and Special Days
  ,                                       !- Use Weather File Daylight Saving Period
  ,                                       !- Apply Weekend Holiday Rule
  ,                                       !- Use Weather File Rain Indicators
  ,                                       !- Use Weather File Snow Indicators
  ;                                       !- Number of Times Runperiod to be Repeated

OS:LifeCycleCost:Parameters,
  {8c5c712e-ad4d-4dd2-9eb7-48f963f72a12}, !- Handle
  ,                                       !- Analysis Type
  ,                                       !- Discounting Convention
  ,                                       !- Inflation Approach
  ,                                       !- Real Discount Rate
  ,                                       !- Nominal Discount Rate
  ,                                       !- Inflation
  ,                                       !- Base Date Month
  ,                                       !- Base Date Year
  ,                                       !- Service Date Month
  ,                                       !- Service Date Year
  ;                                       !- Length of Study Period in Years

OS:YearDescription,
  {b24c8a9b-6634-4aee-b5c1-a2b7b5d4b278}, !- Handle
  2019,                                   !- Calendar Year
  ,                                       !- Day of Week for Start Day
  ;                                       !- Is Leap Year

OS:WeatherFile,
  {684bda5b-d635-4673-ac30-e4dd82485bc8}, !- Handle
  Buffalo Niagara Intl Ap,                !- City
  NY,                                     !- State Province Region
  USA,                                    !- Country
  TMY3,                                   !- Data Source
  725280,                                 !- WMO Number
  42.93,                                  !- Latitude {deg}
  -78.73,                                 !- Longitude {deg}
  -5,                                     !- Time Zone {hr}
  215,                                    !- Elevation {m}
  file:///C:/urbanopt-example-reopt-project/weather/USA_NY_Buffalo-Greater.Buffalo.Intl.AP.725280_TMY3.epw, !- Url
  ;                                       !- Checksum

OS:Site:WaterMainsTemperature,
  {4de789b9-b02a-4317-80ec-d3823b1d7965}, !- Handle
  Correlation,                            !- Calculation Method
  ,                                       !- Temperature Schedule Name
  8.96666666666667,                       !- Annual Average Outdoor Air Temperature {C}
  26.2;                                   !- Maximum Difference In Monthly Average Outdoor Air Temperatures {deltaC}

OS:SizingPeriod:DesignDay,
  {10aa870f-f3b4-4b90-960e-d17ddc465e94}, !- Handle
  Buffalo Niagara Intl Ap Ann Clg .4% Condns DB=>MWB 1, !- Name
  30.3,                                   !- Maximum Dry-Bulb Temperature {C}
  9.3,                                    !- Daily Dry-Bulb Temperature Range {deltaC}
  21.8,                                   !- Humidity Indicating Conditions at Maximum Dry-Bulb
  98769,                                  !- Barometric Pressure {Pa}
  5.7,                                    !- Wind Speed {m/s}
  240,                                    !- Wind Direction {deg}
  0,                                      !- Sky Clearness
  0,                                      !- Rain Indicator
  0,                                      !- Snow Indicator
  21,                                     !- Day of Month
  7,                                      !- Month
  SummerDesignDay,                        !- Day Type
  0,                                      !- Daylight Saving Time Indicator
  Wetbulb,                                !- Humidity Indicating Type
  ,                                       !- Humidity Indicating Day Schedule Name
  DefaultMultipliers,                     !- Dry-Bulb Temperature Range Modifier Type
  ,                                       !- Dry-Bulb Temperature Range Modifier Schedule Name
  ASHRAETau,                              !- Solar Model Indicator
  ,                                       !- Beam Solar Day Schedule Name
  ,                                       !- Diffuse Solar Day Schedule Name
  0.462,                                  !- ASHRAE Taub {dimensionless}
  2.001;                                  !- ASHRAE Taud {dimensionless}

OS:SizingPeriod:DesignDay,
  {7c53478e-3e96-45f0-a230-71bf15f4b1bb}, !- Handle
  Buffalo Niagara Intl Ap Ann Clg .4% Condns WB=>MDB 1, !- Name
  27.8,                                   !- Maximum Dry-Bulb Temperature {C}
  9.3,                                    !- Daily Dry-Bulb Temperature Range {deltaC}
  23.8,                                   !- Humidity Indicating Conditions at Maximum Dry-Bulb
  98769,                                  !- Barometric Pressure {Pa}
  5.7,                                    !- Wind Speed {m/s}
  240,                                    !- Wind Direction {deg}
  0,                                      !- Sky Clearness
  0,                                      !- Rain Indicator
  0,                                      !- Snow Indicator
  21,                                     !- Day of Month
  7,                                      !- Month
  SummerDesignDay,                        !- Day Type
  0,                                      !- Daylight Saving Time Indicator
  Wetbulb,                                !- Humidity Indicating Type
  ,                                       !- Humidity Indicating Day Schedule Name
  DefaultMultipliers,                     !- Dry-Bulb Temperature Range Modifier Type
  ,                                       !- Dry-Bulb Temperature Range Modifier Schedule Name
  ASHRAETau,                              !- Solar Model Indicator
  ,                                       !- Beam Solar Day Schedule Name
  ,                                       !- Diffuse Solar Day Schedule Name
  0.462,                                  !- ASHRAE Taub {dimensionless}
  2.001;                                  !- ASHRAE Taud {dimensionless}

OS:SizingPeriod:DesignDay,
  {081b65b8-0b74-4bce-96a7-e3ce3edf31c4}, !- Handle
  Buffalo Niagara Intl Ap Ann Htg 99.6% Condns DB 1, !- Name
  -16.3,                                  !- Maximum Dry-Bulb Temperature {C}
  0,                                      !- Daily Dry-Bulb Temperature Range {deltaC}
  -16.3,                                  !- Humidity Indicating Conditions at Maximum Dry-Bulb
  98769,                                  !- Barometric Pressure {Pa}
  5.1,                                    !- Wind Speed {m/s}
  270,                                    !- Wind Direction {deg}
  0,                                      !- Sky Clearness
  0,                                      !- Rain Indicator
  0,                                      !- Snow Indicator
  21,                                     !- Day of Month
  1,                                      !- Month
  WinterDesignDay,                        !- Day Type
  0,                                      !- Daylight Saving Time Indicator
  Wetbulb,                                !- Humidity Indicating Type
  ,                                       !- Humidity Indicating Day Schedule Name
  DefaultMultipliers,                     !- Dry-Bulb Temperature Range Modifier Type
  ,                                       !- Dry-Bulb Temperature Range Modifier Schedule Name
  ASHRAEClearSky;                         !- Solar Model Indicator

OS:ClimateZones,
  {dab15a33-9f5d-470b-9027-0cd92efe23a9}, !- Handle
  ,                                       !- Active Institution
  ,                                       !- Active Year
  ASHRAE,                                 !- Climate Zone Institution Name 1
  ANSI/ASHRAE Standard 169,               !- Climate Zone Document Name 1
  2006,                                   !- Climate Zone Document Year 1
  6A;                                     !- Climate Zone Value 1

OS:RunPeriodControl:DaylightSavingTime,
  {b1444254-30df-4e18-820c-980340c971b3}, !- Handle
  2nd Sunday in March,                    !- Start Date
  1st Sunday in November;                 !- End Date

OS:People:Definition,
  {16fb1860-7df8-439b-87d8-13da4c8a2d96}, !- Handle
  FullServiceRestaurant Kitchen People Definition, !- Name
  People/Area,                            !- Number of People Calculation Method
  ,                                       !- Number of People {people}
  0.0538195520835486,                     !- People per Space Floor Area {person/m2}
  ,                                       !- Space Floor Area per Person {m2/person}
  0.3,                                    !- Fraction Radiant
  ,                                       !- Sensible Heat Fraction
  ,                                       !- Carbon Dioxide Generation Rate {m3/s-W}
  Yes,                                    !- Enable ASHRAE 55 Comfort Warnings
  ZoneAveraged,                           !- Mean Radiant Temperature Calculation Type
  Fanger;                                 !- Thermal Comfort Model Type 1

OS:Schedule:Ruleset,
  {7a757a96-60f2-4f28-9328-d3bc997ffa52}, !- Handle
  Clothing Schedule,                      !- Name
  {1f46176c-b3d8-4dd6-aca8-cbfd08043db2}, !- Schedule Type Limits Name
  {1437468f-03ba-41c1-ac67-b4545a415e2b}; !- Default Day Schedule Name

OS:Schedule:Day,
  {1437468f-03ba-41c1-ac67-b4545a415e2b}, !- Handle
  Clothing Schedule Default Winter Clothes, !- Name
  {1f46176c-b3d8-4dd6-aca8-cbfd08043db2}, !- Schedule Type Limits Name
  ,                                       !- Interpolate to Timestep
  24,                                     !- Hour 1
  0,                                      !- Minute 1
  1;                                      !- Value Until Time 1

OS:Schedule:Rule,
  {63e91d5b-209e-4766-a2bd-959812ac8bb7}, !- Handle
  Schedule Rule 1,                        !- Name
  {7a757a96-60f2-4f28-9328-d3bc997ffa52}, !- Schedule Ruleset Name
  0,                                      !- Rule Order
  {452f5f94-cf3f-47fd-8873-9a7059d18b90}, !- Day Schedule Name
  ,                                       !- Apply Sunday
  ,                                       !- Apply Monday
  ,                                       !- Apply Tuesday
  ,                                       !- Apply Wednesday
  ,                                       !- Apply Thursday
  ,                                       !- Apply Friday
  ,                                       !- Apply Saturday
  ,                                       !- Apply Holiday
  DateRange,                              !- Date Specification Type
  5,                                      !- Start Month
  1,                                      !- Start Day
  9,                                      !- End Month
  30;                                     !- End Day

OS:Schedule:Day,
  {452f5f94-cf3f-47fd-8873-9a7059d18b90}, !- Handle
  Clothing Schedule Summer Clothes,       !- Name
  {1f46176c-b3d8-4dd6-aca8-cbfd08043db2}, !- Schedule Type Limits Name
  ,                                       !- Interpolate to Timestep
  24,                                     !- Hour 1
  0,                                      !- Minute 1
  0.5;                                    !- Value Until Time 1

OS:ScheduleTypeLimits,
  {1f46176c-b3d8-4dd6-aca8-cbfd08043db2}, !- Handle
  ClothingInsulation,                     !- Name
  0,                                      !- Lower Limit Value
  ,                                       !- Upper Limit Value
  Continuous,                             !- Numeric Type
  ClothingInsulation;                     !- Unit Type

OS:Schedule:Ruleset,
  {12217fab-0204-431b-bcb6-dbe2bfe39572}, !- Handle
  Air Velocity Schedule,                  !- Name
  {21dca210-1ef9-4836-b769-9dc74042e8e9}, !- Schedule Type Limits Name
  {0d08eeba-0a81-48b7-9b6a-41ffb671a234}; !- Default Day Schedule Name

OS:Schedule:Day,
  {0d08eeba-0a81-48b7-9b6a-41ffb671a234}, !- Handle
  Air Velocity Schedule Default,          !- Name
  {21dca210-1ef9-4836-b769-9dc74042e8e9}, !- Schedule Type Limits Name
  ,                                       !- Interpolate to Timestep
  24,                                     !- Hour 1
  0,                                      !- Minute 1
  0.2;                                    !- Value Until Time 1

OS:ScheduleTypeLimits,
  {21dca210-1ef9-4836-b769-9dc74042e8e9}, !- Handle
  Velocity,                               !- Name
  0,                                      !- Lower Limit Value
  ,                                       !- Upper Limit Value
  Continuous,                             !- Numeric Type
  Velocity;                               !- Unit Type

OS:Schedule:Ruleset,
  {7eb72e4d-262f-4312-b026-7b050cb32188}, !- Handle
  Work Efficiency Schedule,               !- Name
  {b868a051-3798-46e7-922b-49476fb86c55}, !- Schedule Type Limits Name
  {8498b60e-3a86-4a08-bb43-349bb3288ead}; !- Default Day Schedule Name

OS:Schedule:Day,
  {8498b60e-3a86-4a08-bb43-349bb3288ead}, !- Handle
  Work Efficiency Schedule Default,       !- Name
  {b868a051-3798-46e7-922b-49476fb86c55}, !- Schedule Type Limits Name
  ,                                       !- Interpolate to Timestep
  24,                                     !- Hour 1
  0,                                      !- Minute 1
  0;                                      !- Value Until Time 1

OS:ScheduleTypeLimits,
  {b868a051-3798-46e7-922b-49476fb86c55}, !- Handle
  Fractional,                             !- Name
  0,                                      !- Lower Limit Value
  1,                                      !- Upper Limit Value
  Continuous;                             !- Numeric Type

OS:Lights:Definition,
  {5c6678f9-37af-409c-bd7b-1eec3a05128d}, !- Handle
  FullServiceRestaurant Kitchen Lights Definition, !- Name
  Watts/Area,                             !- Design Level Calculation Method
  ,                                       !- Lighting Level {W}
  13.0243316042188,                       !- Watts per Space Floor Area {W/m2}
  ,                                       !- Watts per Person {W/person}
  0.7,                                    !- Fraction Radiant
  0.2;                                    !- Fraction Visible

OS:AdditionalProperties,
  {5217821e-ff3b-4f30-a374-5f3ef26b2778}, !- Handle
  {5c6678f9-37af-409c-bd7b-1eec3a05128d}, !- Object Name
  lpd_fraction_linear_fluorescent,        !- Feature Name 1
  Double,                                 !- Feature Data Type 1
  1;                                      !- Feature Value 1

OS:ElectricEquipment:Definition,
  {b5cdc9ca-4581-44dd-af7a-c0aaa069822a}, !- Handle
  FullServiceRestaurant Kitchen Elec Equip Definition, !- Name
  Watts/Area,                             !- Design Level Calculation Method
  ,                                       !- Design Level {W}
  403.969557939116,                       !- Watts per Space Floor Area {W/m2}
  ,                                       !- Watts per Person {W/person}
  0.25,                                   !- Fraction Latent
  0.3,                                    !- Fraction Radiant
  0.2;                                    !- Fraction Lost

OS:GasEquipment:Definition,
  {b014edaa-cf49-48fe-bb22-9b9e31307d69}, !- Handle
  FullServiceRestaurant Kitchen Gas Equip Definition, !- Name
  Watts/Area,                             !- Design Level Calculation Method
  ,                                       !- Design Level {W}
  649.246321241426,                       !- Watts per Space Floor Area {W/m2}
  ,                                       !- Watts per Person {W/Person}
  0.1,                                    !- Fraction Latent
  0.2,                                    !- Fraction Radiant
  0.7;                                    !- Fraction Lost

OS:DesignSpecification:OutdoorAir,
  {6240840d-918c-49b5-8159-efb3c51bbeae}, !- Handle
  FullServiceRestaurant Kitchen Ventilation, !- Name
  Sum,                                    !- Outdoor Air Method
  0.003539605824,                         !- Outdoor Air Flow per Person {m3/s-person}
  0.0009144,                              !- Outdoor Air Flow per Floor Area {m3/s-m2}
  ,                                       !- Outdoor Air Flow Rate {m3/s}
  ,                                       !- Outdoor Air Flow Air Changes per Hour {1/hr}
  ;                                       !- Outdoor Air Flow Rate Fraction Schedule Name

OS:DefaultScheduleSet,
  {6f406655-3a4f-43e2-931c-cecc2147077b}, !- Handle
  FullServiceRestaurant Kitchen Schedule Set, !- Name
  ,                                       !- Hours of Operation Schedule Name
  {84c41fc8-ee31-4109-857a-1ad98ccfb8b4}, !- Number of People Schedule Name
  {06dcd95e-4af6-41f6-9218-6b8fc3a4a241}, !- People Activity Level Schedule Name
  {8c649b08-89eb-494d-9f32-706fac027e9c}, !- Lighting Schedule Name
  {bb637db2-dc16-4818-829b-142ec29fa1ad}, !- Electric Equipment Schedule Name
  {a871b9a1-e45b-4711-887c-733d01b3dab9}, !- Gas Equipment Schedule Name
  ,                                       !- Hot Water Equipment Schedule Name
  {92ca3179-2626-426a-8128-79db128235b2}, !- Infiltration Schedule Name
  ,                                       !- Steam Equipment Schedule Name
  ;                                       !- Other Equipment Schedule Name

OS:Schedule:Ruleset,
  {84c41fc8-ee31-4109-857a-1ad98ccfb8b4}, !- Handle
  RestaurantSitDown BLDG_OCC_SCH,         !- Name
  {b868a051-3798-46e7-922b-49476fb86c55}, !- Schedule Type Limits Name
  {30b0e5ba-a8cd-4a91-8c68-59cb341a0c9f}, !- Default Day Schedule Name
  {a25531df-f4e4-44c5-9a75-a8d6ebb0afa7}, !- Summer Design Day Schedule Name
  {84f5d1fe-c11b-4341-b8a9-8e5e4f817519}; !- Winter Design Day Schedule Name

OS:Schedule:Day,
  {30b0e5ba-a8cd-4a91-8c68-59cb341a0c9f}, !- Handle
  RestaurantSitDown BLDG_OCC_SCH Default, !- Name
  {b868a051-3798-46e7-922b-49476fb86c55}, !- Schedule Type Limits Name
  ,                                       !- Interpolate to Timestep
  1,                                      !- Hour 1
  0,                                      !- Minute 1
  0.05,                                   !- Value Until Time 1
  6,                                      !- Hour 2
  0,                                      !- Minute 2
  0,                                      !- Value Until Time 2
  7,                                      !- Hour 3
  0,                                      !- Minute 3
  0.05,                                   !- Value Until Time 3
  9,                                      !- Hour 4
  0,                                      !- Minute 4
  0.5,                                    !- Value Until Time 4
  11,                                     !- Hour 5
  0,                                      !- Minute 5
  0.2,                                    !- Value Until Time 5
  12,                                     !- Hour 6
  0,                                      !- Minute 6
  0.3,                                    !- Value Until Time 6
  14,                                     !- Hour 7
  0,                                      !- Minute 7
  0.5,                                    !- Value Until Time 7
  15,                                     !- Hour 8
  0,                                      !- Minute 8
  0.3,                                    !- Value Until Time 8
  16,                                     !- Hour 9
  0,                                      !- Minute 9
  0.2,                                    !- Value Until Time 9
  17,                                     !- Hour 10
  0,                                      !- Minute 10
  0.25,                                   !- Value Until Time 10
  18,                                     !- Hour 11
  0,                                      !- Minute 11
  0.35,                                   !- Value Until Time 11
  19,                                     !- Hour 12
  0,                                      !- Minute 12
  0.55,                                   !- Value Until Time 12
  20,                                     !- Hour 13
  0,                                      !- Minute 13
  0.65,                                   !- Value Until Time 13
  21,                                     !- Hour 14
  0,                                      !- Minute 14
  0.7,                                    !- Value Until Time 14
  22,                                     !- Hour 15
  0,                                      !- Minute 15
  0.35,                                   !- Value Until Time 15
  24,                                     !- Hour 16
  0,                                      !- Minute 16
  0.2;                                    !- Value Until Time 16

OS:Schedule:Rule,
  {e55f5fe4-5723-40f6-a545-43d043017ecb}, !- Handle
  Schedule Rule 2,                        !- Name
  {84c41fc8-ee31-4109-857a-1ad98ccfb8b4}, !- Schedule Ruleset Name
  1,                                      !- Rule Order
  {ee6da945-4415-45a6-8d7c-fff3c03e16c6}, !- Day Schedule Name
  ,                                       !- Apply Sunday
  ,                                       !- Apply Monday
  ,                                       !- Apply Tuesday
  ,                                       !- Apply Wednesday
  ,                                       !- Apply Thursday
  ,                                       !- Apply Friday
  Yes,                                    !- Apply Saturday
  ,                                       !- Apply Holiday
  DateRange,                              !- Date Specification Type
  1,                                      !- Start Month
  1,                                      !- Start Day
  12,                                     !- End Month
  31;                                     !- End Day

OS:Schedule:Day,
  {ee6da945-4415-45a6-8d7c-fff3c03e16c6}, !- Handle
  RestaurantSitDown BLDG_OCC_SCH Sat Day, !- Name
  {b868a051-3798-46e7-922b-49476fb86c55}, !- Schedule Type Limits Name
  ,                                       !- Interpolate to Timestep
  1,                                      !- Hour 1
  0,                                      !- Minute 1
  0.05,                                   !- Value Until Time 1
  6,                                      !- Hour 2
  0,                                      !- Minute 2
  0,                                      !- Value Until Time 2
  7,                                      !- Hour 3
  0,                                      !- Minute 3
  0.05,                                   !- Value Until Time 3
  9,                                      !- Hour 4
  0,                                      !- Minute 4
  0.5,                                    !- Value Until Time 4
  10,                                     !- Hour 5
  0,                                      !- Minute 5
  0.4,                                    !- Value Until Time 5
  11,                                     !- Hour 6
  0,                                      !- Minute 6
  0.2,                                    !- Value Until Time 6
  12,                                     !- Hour 7
  0,                                      !- Minute 7
  0.45,                                   !- Value Until Time 7
  14,                                     !- Hour 8
  0,                                      !- Minute 8
  0.5,                                    !- Value Until Time 8
  15,                                     !- Hour 9
  0,                                      !- Minute 9
  0.35,                                   !- Value Until Time 9
  18,                                     !- Hour 10
  0,                                      !- Minute 10
  0.3,                                    !- Value Until Time 10
  19,                                     !- Hour 11
  0,                                      !- Minute 11
  0.7,                                    !- Value Until Time 11
  20,                                     !- Hour 12
  0,                                      !- Minute 12
  0.9,                                    !- Value Until Time 12
  21,                                     !- Hour 13
  0,                                      !- Minute 13
  0.7,                                    !- Value Until Time 13
  22,                                     !- Hour 14
  0,                                      !- Minute 14
  0.65,                                   !- Value Until Time 14
  23,                                     !- Hour 15
  0,                                      !- Minute 15
  0.55,                                   !- Value Until Time 15
  24,                                     !- Hour 16
  0,                                      !- Minute 16
  0.35;                                   !- Value Until Time 16

OS:Schedule:Day,
  {a25531df-f4e4-44c5-9a75-a8d6ebb0afa7}, !- Handle
  RestaurantSitDown BLDG_OCC_SCH Summer Design Day, !- Name
  {b868a051-3798-46e7-922b-49476fb86c55}, !- Schedule Type Limits Name
  ,                                       !- Interpolate to Timestep
  24,                                     !- Hour 1
  0,                                      !- Minute 1
  1;                                      !- Value Until Time 1

OS:Schedule:Rule,
  {7047ad7b-093a-4bc7-be14-e103b2005e1f}, !- Handle
  Schedule Rule 3,                        !- Name
  {84c41fc8-ee31-4109-857a-1ad98ccfb8b4}, !- Schedule Ruleset Name
  0,                                      !- Rule Order
  {f42655fe-1cbf-4c36-83fa-17e2b1e4d0a6}, !- Day Schedule Name
  ,                                       !- Apply Sunday
  Yes,                                    !- Apply Monday
  Yes,                                    !- Apply Tuesday
  Yes,                                    !- Apply Wednesday
  Yes,                                    !- Apply Thursday
  Yes,                                    !- Apply Friday
  ,                                       !- Apply Saturday
  ,                                       !- Apply Holiday
  DateRange,                              !- Date Specification Type
  1,                                      !- Start Month
  1,                                      !- Start Day
  12,                                     !- End Month
  31;                                     !- End Day

OS:Schedule:Day,
  {f42655fe-1cbf-4c36-83fa-17e2b1e4d0a6}, !- Handle
  RestaurantSitDown BLDG_OCC_SCH Wkdy Day, !- Name
  {b868a051-3798-46e7-922b-49476fb86c55}, !- Schedule Type Limits Name
  ,                                       !- Interpolate to Timestep
  1,                                      !- Hour 1
  0,                                      !- Minute 1
  0.05,                                   !- Value Until Time 1
  5,                                      !- Hour 2
  0,                                      !- Minute 2
  0,                                      !- Value Until Time 2
  6,                                      !- Hour 3
  0,                                      !- Minute 3
  0.05,                                   !- Value Until Time 3
  7,                                      !- Hour 4
  0,                                      !- Minute 4
  0.1,                                    !- Value Until Time 4
  10,                                     !- Hour 5
  0,                                      !- Minute 5
  0.4,                                    !- Value Until Time 5
  11,                                     !- Hour 6
  0,                                      !- Minute 6
  0.2,                                    !- Value Until Time 6
  12,                                     !- Hour 7